data_malbac
_audit_creation_date               2022-03-14
_audit_creation_method
;
Olex2 1.5-dev
(compiled Mar  5 2022 13:37:06, GUI svn.r6410)
;
_audit_contact_author_address      ?
_audit_contact_author_email        ?
_audit_contact_author_name         ''
_audit_contact_author_phone        ?
_publ_contact_author_id_orcid      ?
_publ_section_references
;
Bourhis, L.J., Dolomanov, O.V., Gildea, R.J., Howard, J.A.K., Puschmann, H.
 (2015). Acta Cryst. A71, 59-75.

Dolomanov, O.V., Bourhis, L.J., Gildea, R.J, Howard, J.A.K. & Puschmann, H.
 (2009), J. Appl. Cryst. 42, 339-341.
;
_chemical_formula_moiety           'C26 H20 Cl N2 O P Pd, 0.5(C7 H8)'
_chemical_formula_sum              'C29.5 H24 Cl N2 O P Pd'
_chemical_formula_weight           612.415
loop_
  _atom_type_symbol
  _atom_type_scat_dispersion_real
  _atom_type_scat_dispersion_imag
  _atom_type_scat_Cromer_Mann_a1
  _atom_type_scat_Cromer_Mann_a2
  _atom_type_scat_Cromer_Mann_a3
  _atom_type_scat_Cromer_Mann_a4
  _atom_type_scat_Cromer_Mann_b1
  _atom_type_scat_Cromer_Mann_b2
  _atom_type_scat_Cromer_Mann_b3
  _atom_type_scat_Cromer_Mann_b4
  _atom_type_scat_Cromer_Mann_c
  _atom_type_scat_source
  _atom_type_scat_dispersion_source
 C 0.00347 0.00161 2.31000 1.02000 1.58860 0.86500 20.84390 10.20750 0.56870
 51.65120 0.21560 'International Tables Volume C Table 6.1.1.4 (pp. 500-502)'
 'Henke, Gullikson and Davis, At. Data and Nucl. Data Tables, 1993, 54, 2'
 Cl 0.14875 0.16032 11.46040 7.19640 6.25560 1.64550 0.01040 1.16620 18.51940
 47.77840 -9.55740 'International Tables Volume C Table 6.1.1.4 (pp. 500-502)'
 'Henke, Gullikson and Davis, At. Data and Nucl. Data Tables, 1993, 54, 2'
 H 0.00000 0.00000 0.49300 0.32291 0.14019 0.04081 10.51090 26.12570 3.14236
 57.79970 0.00304 'International Tables Volume C Table 6.1.1.4 (pp. 500-502)'
 'Henke, Gullikson and Davis, At. Data and Nucl. Data Tables, 1993, 54, 2'
 N 0.00654 0.00323 12.21260 3.13220 2.01250 1.16630 0.00570 9.89330 28.99750
 0.58260 -11.52900 'International Tables Volume C Table 6.1.1.4 (pp. 500-502)'
 'Henke, Gullikson and Davis, At. Data and Nucl. Data Tables, 1993, 54, 2'
 O 0.01158 0.00612 3.04850 2.28680 1.54630 0.86700 13.27710 5.70110 0.32390
 32.90890 0.25080 'International Tables Volume C Table 6.1.1.4 (pp. 500-502)'
 'Henke, Gullikson and Davis, At. Data and Nucl. Data Tables, 1993, 54, 2'
 P 0.10435 0.09673 6.43450 4.17910 1.78000 1.49080 1.90670 27.15700 0.52600
 68.16450 1.11490 'International Tables Volume C Table 6.1.1.4 (pp. 500-502)'
 'Henke, Gullikson and Davis, At. Data and Nucl. Data Tables, 1993, 54, 2'
 Pd -0.98828 1.01485 19.33190 15.50170 5.29537 0.60584 0.69866 7.98929 25.20520
 76.89860 5.26593 'International Tables Volume C Table 6.1.1.4 (pp. 500-502)'
 'Henke, Gullikson and Davis, At. Data and Nucl. Data Tables, 1993, 54, 2'

_space_group_crystal_system        'triclinic'
_space_group_IT_number             2
_space_group_name_H-M_alt          'P -1'
_space_group_name_Hall             '-P 1'
loop_
  _space_group_symop_id
  _space_group_symop_operation_xyz
 1 x,y,z
 2 -x,-y,-z

_symmetry_Int_Tables_number        2
_cell_length_a                     10.551(2)
_cell_length_b                     14.251(3)
_cell_length_c                     9.551(2)
_cell_angle_alpha                  99.77(2)
_cell_angle_beta                   105.10(2)
_cell_angle_gamma                  104.77(2)
_cell_volume                       1297.1(5)
_cell_formula_units_Z              2
_cell_measurement_temperature      293(2)
_exptl_absorpt_coefficient_mu      0.947
_exptl_crystal_density_diffrn      1.568
_exptl_crystal_F_000               618.932
_diffrn_reflns_av_R_equivalents    0.0000
_diffrn_reflns_av_unetI/netI       0.0311
_diffrn_reflns_Laue_measured_fraction_full  0.9981
_diffrn_reflns_Laue_measured_fraction_max  0.9988
_diffrn_reflns_limit_h_max         14
_diffrn_reflns_limit_h_min         -14
_diffrn_reflns_limit_k_max         19
_diffrn_reflns_limit_k_min         -20
_diffrn_reflns_limit_l_max         5
_diffrn_reflns_limit_l_min         -13
_diffrn_reflns_number              7595
_diffrn_reflns_point_group_measured_fraction_full  0.9981
_diffrn_reflns_point_group_measured_fraction_max  0.9988
_diffrn_reflns_theta_full          25.2436
_diffrn_reflns_theta_max           30.05
_diffrn_reflns_theta_min           3.05
_diffrn_measured_fraction_theta_full  0.9981
_diffrn_measured_fraction_theta_max  0.9988
_diffrn_radiation_type             'Mo K\a'
_diffrn_radiation_wavelength       0.71078
_reflns_Friedel_coverage           0.0
_reflns_limit_h_max                14
_reflns_limit_h_min                -14
_reflns_limit_k_max                19
_reflns_limit_k_min                -20
_reflns_limit_l_max                13
_reflns_limit_l_min                0
_reflns_number_gt                  5024
_reflns_number_total               7595
_reflns_threshold_expression       I>=2u(I)
_computing_molecular_graphics      'Olex2 1.5-dev (Dolomanov et al., 2009)'
_computing_publication_material    'Olex2 1.5-dev (Dolomanov et al., 2009)'
_computing_structure_refinement    'olex2.refine 1.5-dev (Bourhis et al., 2015)'
_refine_diff_density_max           1.6532
_refine_diff_density_min           -0.9823
_refine_diff_density_rms           0.1016
_refine_ls_d_res_high              0.7097
_refine_ls_d_res_low               6.6752
_refine_ls_extinction_coef         0.026(3)
_refine_ls_extinction_expression   Fc^*^=kFc[1+0.001xFc^2^\l^3^/sin(2\q)]^-1/4^
_refine_ls_goodness_of_fit_ref     0.9071
_refine_ls_hydrogen_treatment      constr
_refine_ls_matrix_type             full
_refine_ls_number_constraints      55
_refine_ls_number_parameters       339
_refine_ls_number_reflns           7595
_refine_ls_number_restraints       115
_refine_ls_R_factor_all            0.0648
_refine_ls_R_factor_gt             0.0449
_refine_ls_restrained_S_all        0.9000
_refine_ls_shift/su_max            0.0007
_refine_ls_shift/su_mean           0.0000
_refine_ls_structure_factor_coef   Fsqd
_refine_ls_weighting_details      
 'w=1/[\s^2^(Fo^2^)+(0.0807P)^2^+0.7272P] where P=(Fo^2^+2Fc^2^)/3'
_refine_ls_weighting_scheme        calc
_refine_ls_wR_factor_gt            0.1184
_refine_ls_wR_factor_ref           0.1263
_olex2_refinement_description
;
1. Fixed Uiso
 At 1.2 times of:
  All C(H) groups
 At 1.5 times of:
  All C(H,H,H) groups
2. Restrained distances
 C27-C10
 1.35 with sigma of 0.01
3. Restrained angles
 fixed at 120 with sigma of 0.02
 fixed at 120 with sigma of 0.02
 C31-C33-C20
 fixed at 120 with sigma of 0.02
 C5-C12-C6
 fixed at 120 with sigma of 0.02
4. Restrained planarity
 C27, C10, C11, C26
 with sigma of 0.1
5. Rigid body (RIGU) restrains
 C31, O
 with sigma for 1-2 distances of 0.004 and sigma for 1-3 distances of 0.004
 C2, C5, C6, C7, C9, C12
 with sigma for 1-2 distances of 0.004 and sigma for 1-3 distances of 0.004
 C17, C20, C24, C29, C33, C34
 with sigma for 1-2 distances of 0.004 and sigma for 1-3 distances of 0.004
 C13, C11, C10, C26, C25, C4
 with sigma for 1-2 distances of 0.004 and sigma for 1-3 distances of 0.004
6. Others
 Fixed Sof: C10(0.5) C11(0.5) C13(0.5) C4(0.5) C25(0.5) C26(0.5) H11(0.5)
 C27(0.5) H26(0.5) H25(0.5) H4(0.5) H13(0.5) H27a(0.5) H27b(0.5) H27c(0.5)
 Fixed X: C10(-0.053918)
7.a Aromatic/amide H refined with riding coordinates:
 C5(H5), C6(H6), C7(H7), C8(H8), C12(H12), C14(H14), C15(H15), C16(H16),
 C17(H17), C18(H18), C19(H19), C20(H20), C21(H21), C22(H22), C23(H23), C24(H24),
  C29(H29), C30(H30), C32(H32), C34(H34), C11(H11), C26(H26), C25(H25), C4(H4),
 C13(H13)
7.b Fitted hexagon refined as free rotating group:
 C10(C11,C13,C4,C25,C26)
7.c Idealised Me refined as rotating group:
 C27(H27a,H27b,H27c)
;
loop_
  _atom_site_label
  _atom_site_type_symbol
  _atom_site_fract_x
  _atom_site_fract_y
  _atom_site_fract_z
  _atom_site_U_iso_or_equiv
  _atom_site_adp_type
  _atom_site_occupancy
  _atom_site_refinement_flags_posn
  _atom_site_refinement_flags_adp
  _atom_site_disorder_group
 Pd Pd 0.27736(2) 0.170011(17) 0.00002(3) 0.04703(11) Uani 1.000000 . . .
 P P 0.18939(7) 0.26030(5) 0.13620(8) 0.04036(16) Uani 1.000000 . . .
 Cl Cl 0.49494(9) 0.27128(8) 0.14058(14) 0.0813(3) Uani 1.000000 . . .
 O O 0.3477(2) 0.08272(16) -0.1388(3) 0.0513(5) Uani 1.000000 . U .
 N1 N 0.0961(2) 0.07652(17) -0.1409(3) 0.0431(5) Uani 1.000000 . . .
 C1 C 0.2572(3) 0.2740(2) 0.3368(3) 0.0459(6) Uani 1.000000 . . .
 C2 C 0.0030(3) 0.2040(2) 0.0881(3) 0.0436(6) Uani 1.000000 . U .
 C3 C 0.2151(3) 0.3862(2) 0.1067(3) 0.0466(6) Uani 1.000000 . . .
 C5 C -0.0634(3) 0.2446(2) 0.1795(4) 0.0532(7) Uani 1.000000 . U .
 H5 H -0.0109(3) 0.2950(2) 0.2662(4) 0.0638(8) Uiso 1.000000 R . .
 C6 C -0.2854(3) 0.1352(3) 0.0171(4) 0.0574(8) Uani 1.000000 . U .
 H6 H -0.3813(3) 0.1133(3) -0.0082(4) 0.0689(9) Uiso 1.000000 R . .
 C7 C -0.2206(3) 0.0919(3) -0.0716(4) 0.0549(7) Uani 1.000000 . U .
 H7 H -0.2740(3) 0.0395(3) -0.1555(4) 0.0658(9) Uiso 1.000000 R . .
 C8 C 0.1953(4) 0.2036(2) 0.4033(4) 0.0549(7) Uani 1.000000 . . .
 H8 H 0.1140(4) 0.1525(2) 0.3469(4) 0.0658(9) Uiso 1.000000 R . .
 C9 C -0.0762(3) 0.1248(2) -0.0386(3) 0.0451(6) Uani 1.000000 . U .
 C12 C -0.2065(3) 0.2112(3) 0.1435(4) 0.0582(8) Uani 1.000000 . U .
 H12 H -0.2490(3) 0.2401(3) 0.2050(4) 0.0698(9) Uiso 1.000000 R . .
 C14 C 0.3798(3) 0.3500(3) 0.4231(4) 0.0585(8) Uani 1.000000 . . .
 H14 H 0.4218(3) 0.3981(3) 0.3806(4) 0.0702(9) Uiso 1.000000 R . .
 C15 C 0.2901(6) 0.4164(3) 0.0139(6) 0.0937(16) Uani 1.000000 . . .
 H15 H 0.3267(6) 0.3726(3) -0.0338(6) 0.1125(19) Uiso 1.000000 R . .
 C16 C 0.4385(4) 0.3532(3) 0.5722(5) 0.0747(10) Uani 1.000000 . . .
 H16 H 0.5208(4) 0.4032(3) 0.6291(5) 0.0896(13) Uiso 1.000000 R . .
 C17 C 0.1662(5) -0.1067(3) -0.4914(4) 0.0696(9) Uani 1.000000 . U .
 H17 H 0.0767(5) -0.1033(3) -0.5084(4) 0.0836(11) Uiso 1.000000 R . .
 C18 C 0.2545(4) 0.2096(3) 0.5522(4) 0.0692(10) Uani 1.000000 . . .
 H18 H 0.2115(4) 0.1631(3) 0.5964(4) 0.0831(11) Uiso 1.000000 R . .
 C19 C 0.1649(5) 0.4537(3) 0.1743(6) 0.0867(14) Uani 1.000000 . . .
 H19 H 0.1170(5) 0.4368(3) 0.2402(6) 0.1041(16) Uiso 1.000000 R . .
 C20 C 0.3995(5) -0.0553(4) -0.3387(6) 0.0896(14) Uani 1.000000 . U .
 H20 H 0.4698(5) -0.0173(4) -0.2508(6) 0.1075(16) Uiso 1.000000 R . .
 C21 C 0.3768(5) 0.2838(3) 0.6373(5) 0.0741(10) Uani 1.000000 . . .
 H21 H 0.4169(5) 0.2866(3) 0.7375(5) 0.0889(12) Uiso 1.000000 R . .
 C22 C 0.1848(6) 0.5471(3) 0.1457(7) 0.0989(16) Uani 1.000000 . . .
 H22 H 0.1472(6) 0.5912(3) 0.1911(7) 0.119(2) Uiso 1.000000 R . .
 C23 C 0.2559(5) 0.5766(3) 0.0553(5) 0.0818(12) Uani 1.000000 . . .
 H23 H 0.2674(5) 0.6397(3) 0.0367(5) 0.0981(15) Uiso 1.000000 R . .
 C24 C 0.4279(5) -0.1187(4) -0.4462(7) 0.1070(17) Uani 1.000000 . U .
 H24 H 0.5168(5) -0.1232(4) -0.4291(7) 0.128(2) Uiso 1.000000 R . .
 C29 C 0.1942(6) -0.1705(4) -0.5978(5) 0.0820(11) Uani 1.000000 . U .
 H29 H 0.1236(6) -0.2109(4) -0.6839(5) 0.0984(14) Uiso 1.000000 R . .
 C30 C 0.3104(7) 0.5119(4) -0.0078(7) 0.114(2) Uani 1.000000 . . .
 H30 H 0.3634(7) 0.5320(4) -0.0678(7) 0.136(2) Uiso 1.000000 R . .
 N2 N 0.1106(3) 0.0100(2) -0.2586(3) 0.0506(6) Uani 1.000000 . . .
 C31 C 0.2408(3) 0.0197(2) -0.2443(4) 0.0502(6) Uani 1.000000 . U .
 C32 C -0.0266(3) 0.0683(2) -0.1446(3) 0.0480(6) Uani 1.000000 . . .
 H32 H -0.0949(3) 0.0200(2) -0.2252(3) 0.0576(7) Uiso 1.000000 R . .
 C33 C 0.2682(4) -0.0484(2) -0.3617(4) 0.0555(7) Uani 1.000000 . U .
 C34 C 0.3272(6) -0.1738(4) -0.5750(5) 0.0853(12) Uani 1.000000 . U .
 H34 H 0.3477(6) -0.2137(4) -0.6481(5) 0.1024(14) Uiso 1.000000 R . .
 C10 C -0.053918 0.498463 0.478548 0.126(4) Uani 0.500000 D U -1
 C11 C -0.0186(7) 0.4208(3) 0.5325(6) 0.102(4) Uani 0.500000 G U -1
 C4 C 0.2227(4) 0.5139(10) 0.5989(13) 0.171(9) Uani 0.500000 G U -1
 C13 C 0.1197(9) 0.4285(8) 0.5927(11) 0.127(4) Uani 0.500000 G U -1
 C25 C 0.1874(3) 0.5915(7) 0.5450(12) 0.157(5) Uani 0.500000 G U -1
 C26 C 0.0491(5) 0.5838(3) 0.4848(7) 0.135(6) Uani 0.500000 G U -1
 C27 C -0.1881(11) 0.4848(16) 0.4191(19) 0.186(11) Uani 0.500000 D . -1
 H11 H -0.0875(7) 0.3637(3) 0.5284(6) 0.123(5) Uiso 0.500000 R . -1
 H26 H 0.0255(5) 0.6358(3) 0.4487(7) 0.162(7) Uiso 0.500000 R . -1
 H25 H 0.2563(3) 0.6486(7) 0.5491(12) 0.189(6) Uiso 0.500000 R . -1
 H4 H 0.3153(4) 0.5191(10) 0.6392(13) 0.206(11) Uiso 0.500000 R . -1
 H13 H 0.1433(9) 0.3766(8) 0.6288(11) 0.152(5) Uiso 0.500000 R . -1
 H27a H -0.226(4) 0.430(10) 0.330(12) 0.279(17) Uiso 0.500000 GR . -1
 H27b H -0.234(3) 0.469(14) 0.490(8) 0.279(17) Uiso 0.500000 GR . -1
 H27c H -0.2006(15) 0.545(5) 0.39(2) 0.279(17) Uiso 0.500000 GR . -1

loop_
  _atom_site_aniso_label
  _atom_site_aniso_U_11
  _atom_site_aniso_U_22
  _atom_site_aniso_U_33
  _atom_site_aniso_U_12
  _atom_site_aniso_U_13
  _atom_site_aniso_U_23
 Pd 0.03729(13) 0.04671(14) 0.06029(17) 0.01408(9) 0.02314(10) 0.00856(10)
 P 0.0353(3) 0.0394(3) 0.0496(4) 0.0123(3) 0.0193(3) 0.0095(3)
 Cl 0.0378(4) 0.0828(6) 0.1048(8) 0.0094(4) 0.0244(4) -0.0120(5)
 O 0.0451(10) 0.0492(11) 0.0646(13) 0.0169(8) 0.0296(9) 0.0053(9)
 N1 0.0471(12) 0.0403(11) 0.0457(12) 0.0168(10) 0.0189(10) 0.0098(9)
 C1 0.0434(13) 0.0453(14) 0.0531(16) 0.0166(11) 0.0196(12) 0.0127(12)
 C2 0.0365(12) 0.0463(14) 0.0536(15) 0.0162(10) 0.0197(10) 0.0135(11)
 C3 0.0453(14) 0.0424(14) 0.0503(15) 0.0123(11) 0.0134(12) 0.0122(12)
 C5 0.0416(13) 0.0574(17) 0.0635(18) 0.0187(11) 0.0233(12) 0.0082(13)
 C6 0.0359(13) 0.0691(19) 0.073(2) 0.0197(12) 0.0233(12) 0.0191(14)
 C7 0.0334(12) 0.0623(18) 0.0644(18) 0.0136(11) 0.0141(11) 0.0089(14)
 C8 0.0577(18) 0.0512(16) 0.0620(19) 0.0195(14) 0.0250(15) 0.0176(14)
 C9 0.0356(12) 0.0520(15) 0.0532(15) 0.0170(10) 0.0179(10) 0.0165(12)
 C12 0.0457(14) 0.0647(18) 0.074(2) 0.0247(12) 0.0293(13) 0.0144(14)
 C14 0.0473(16) 0.0631(19) 0.0612(19) 0.0117(14) 0.0154(14) 0.0172(15)
 C15 0.142(4) 0.063(2) 0.116(4) 0.036(3) 0.092(4) 0.039(2)
 C16 0.057(2) 0.088(3) 0.064(2) 0.0159(19) 0.0049(17) 0.011(2)
 C17 0.082(2) 0.077(2) 0.062(2) 0.0386(17) 0.0313(16) 0.0149(15)
 C18 0.078(2) 0.075(2) 0.068(2) 0.028(2) 0.031(2) 0.0335(19)
 C19 0.102(3) 0.058(2) 0.133(4) 0.037(2) 0.073(3) 0.037(2)
 C20 0.068(2) 0.090(3) 0.106(3) 0.0285(17) 0.0403(19) -0.015(2)
 C21 0.080(3) 0.091(3) 0.059(2) 0.038(2) 0.0181(19) 0.027(2)
 C22 0.104(4) 0.060(2) 0.157(5) 0.042(2) 0.059(4) 0.036(3)
 C23 0.095(3) 0.056(2) 0.088(3) 0.019(2) 0.016(2) 0.032(2)
 C24 0.085(3) 0.116(4) 0.121(3) 0.044(2) 0.052(2) -0.017(2)
 C29 0.115(3) 0.081(3) 0.064(2) 0.048(2) 0.0364(19) 0.0138(18)
 C30 0.173(6) 0.070(3) 0.121(4) 0.025(3) 0.085(4) 0.046(3)
 N2 0.0519(14) 0.0523(14) 0.0529(14) 0.0200(11) 0.0255(11) 0.0079(11)
 C31 0.0552(16) 0.0477(15) 0.0602(17) 0.0216(12) 0.0313(13) 0.0170(12)
 C32 0.0410(14) 0.0513(16) 0.0525(16) 0.0161(12) 0.0169(12) 0.0095(13)
 C33 0.0663(18) 0.0503(16) 0.0650(18) 0.0228(13) 0.0401(14) 0.0169(13)
 C34 0.114(3) 0.078(3) 0.084(3) 0.047(2) 0.054(2) 0.0118(19)
 C10 0.168(9) 0.119(7) 0.130(8) 0.080(5) 0.074(6) 0.033(5)
 C11 0.156(8) 0.069(5) 0.094(11) 0.044(4) 0.057(5) 0.011(4)
 C4 0.174(9) 0.140(10) 0.17(2) 0.022(5) 0.049(6) 0.027(8)
 C13 0.152(8) 0.105(7) 0.125(9) 0.053(5) 0.050(6) 0.004(5)
 C25 0.221(11) 0.137(8) 0.117(10) 0.051(6) 0.079(7) 0.007(5)
 C26 0.228(10) 0.109(8) 0.083(9) 0.045(6) 0.088(7) 0.015(5)
 C27 0.25(2) 0.24(3) 0.085(11) 0.16(2) 0.021(12) -0.002(12)

loop_
  _geom_bond_atom_site_label_1
  _geom_bond_atom_site_label_2
  _geom_bond_distance
  _geom_bond_site_symmetry_2
  _geom_bond_publ_flag
 Pd P 2.2087(8) . ?
 Pd Cl 2.2809(12) . ?
 Pd O 2.0692(19) . ?
 Pd N1 1.999(3) . ?
 P C1 1.819(3) . ?
 P C2 1.823(3) . ?
 P C3 1.826(3) . ?
 O C31 1.295(4) . ?
 N1 N2 1.410(3) . ?
 N1 C32 1.260(4) . ?
 C1 C8 1.390(4) . ?
 C1 C14 1.397(4) . ?
 C2 C5 1.393(4) . ?
 C2 C9 1.402(4) . ?
 C3 C15 1.386(5) . ?
 C3 C19 1.360(5) . ?
 C5 H5 0.9300 . ?
 C5 C12 1.390(4) . ?
 C6 H6 0.9300 . ?
 C6 C7 1.381(5) . ?
 C6 C12 1.377(5) . ?
 C7 H7 0.9300 . ?
 C7 C9 1.406(4) . ?
 C8 H8 0.9300 . ?
 C8 C18 1.374(5) . ?
 C9 C32 1.470(4) . ?
 C12 H12 0.9300 . ?
 C14 H14 0.9300 . ?
 C14 C16 1.385(5) . ?
 C15 H15 0.9300 . ?
 C15 C30 1.382(6) . ?
 C16 H16 0.9300 . ?
 C16 C21 1.370(6) . ?
 C17 H17 0.9300 . ?
 C17 C29 1.388(5) . ?
 C17 C33 1.372(5) . ?
 C18 H18 0.9300 . ?
 C18 C21 1.383(6) . ?
 C19 H19 0.9300 . ?
 C19 C22 1.378(6) . ?
 C20 H20 0.9300 . ?
 C20 C24 1.395(6) . ?
 C20 C33 1.377(5) . ?
 C21 H21 0.9300 . ?
 C22 H22 0.9300 . ?
 C22 C23 1.337(7) . ?
 C23 H23 0.9300 . ?
 C23 C30 1.343(7) . ?
 C24 H24 0.9300 . ?
 C24 C34 1.350(7) . ?
 C29 H29 0.9300 . ?
 C29 C34 1.377(7) . ?
 C30 H30 0.9300 . ?
 N2 C31 1.314(4) . ?
 C31 C33 1.491(4) . ?
 C32 H32 0.9300 . ?
 C34 H34 0.9300 . ?
 C10 C11 1.3900 . ?
 C10 C26 1.3900 . ?
 C10 C27 1.329(9) . ?
 C11 C13 1.3900 . ?
 C11 H11 0.9300 . ?
 C4 C13 1.3900 . ?
 C4 C25 1.3900 . ?
 C4 H4 0.9300 . ?
 C13 H13 0.9300 . ?
 C25 C26 1.3900 . ?
 C25 H25 0.9300 . ?
 C26 H26 0.9300 . ?
 C27 H27a 0.9600 . ?
 C27 H27b 0.9600 . ?
 C27 H27c 0.9600 . ?

loop_
  _geom_angle_atom_site_label_1
  _geom_angle_atom_site_label_2
  _geom_angle_atom_site_label_3
  _geom_angle
  _geom_angle_site_symmetry_1
  _geom_angle_site_symmetry_3
  _geom_angle_publ_flag
 Cl Pd P 90.05(3) . . ?
 O Pd P 176.26(6) . . ?
 O Pd Cl 93.34(6) . . ?
 N1 Pd P 96.07(7) . . ?
 N1 Pd Cl 173.50(7) . . ?
 N1 Pd O 80.49(9) . . ?
 C1 P Pd 114.26(9) . . ?
 C2 P Pd 111.64(9) . . ?
 C2 P C1 104.96(13) . . ?
 C3 P Pd 112.32(10) . . ?
 C3 P C1 107.39(13) . . ?
 C3 P C2 105.64(13) . . ?
 C31 O Pd 107.79(17) . . ?
 N2 N1 Pd 112.90(18) . . ?
 C32 N1 Pd 131.7(2) . . ?
 C32 N1 N2 115.4(2) . . ?
 C8 C1 P 120.4(2) . . ?
 C14 C1 P 120.1(2) . . ?
 C14 C1 C8 119.2(3) . . ?
 C5 C2 P 117.8(2) . . ?
 C9 C2 P 123.1(2) . . ?
 C9 C2 C5 119.1(3) . . ?
 C15 C3 P 119.8(3) . . ?
 C19 C3 P 122.7(3) . . ?
 C19 C3 C15 117.5(3) . . ?
 H5 C5 C2 119.39(18) . . ?
 C12 C5 C2 121.2(3) . . ?
 C12 C5 H5 119.39(19) . . ?
 C7 C6 H6 120.40(19) . . ?
 C12 C6 H6 120.40(17) . . ?
 C12 C6 C7 119.2(3) . . ?
 H7 C7 C6 119.07(19) . . ?
 C9 C7 C6 121.9(3) . . ?
 C9 C7 H7 119.07(19) . . ?
 H8 C8 C1 120.00(19) . . ?
 C18 C8 C1 120.0(3) . . ?
 C18 C8 H8 120.0(2) . . ?
 C7 C9 C2 118.5(3) . . ?
 C32 C9 C2 127.8(2) . . ?
 C32 C9 C7 113.8(3) . . ?
 C6 C12 C5 120.1(3) . . ?
 H12 C12 C5 119.93(19) . . ?
 H12 C12 C6 119.93(17) . . ?
 H14 C14 C1 120.18(19) . . ?
 C16 C14 C1 119.6(3) . . ?
 C16 C14 H14 120.2(2) . . ?
 H15 C15 C3 120.1(2) . . ?
 C30 C15 C3 119.8(4) . . ?
 C30 C15 H15 120.1(3) . . ?
 H16 C16 C14 119.5(2) . . ?
 C21 C16 C14 120.9(4) . . ?
 C21 C16 H16 119.5(2) . . ?
 C29 C17 H17 119.4(3) . . ?
 C33 C17 H17 119.4(2) . . ?
 C33 C17 C29 121.1(4) . . ?
 H18 C18 C8 119.5(2) . . ?
 C21 C18 C8 121.0(4) . . ?
 C21 C18 H18 119.5(2) . . ?
 H19 C19 C3 119.8(2) . . ?
 C22 C19 C3 120.4(4) . . ?
 C22 C19 H19 119.8(3) . . ?
 C24 C20 H20 119.7(3) . . ?
 C33 C20 H20 119.7(2) . . ?
 C33 C20 C24 120.5(4) . . ?
 C18 C21 C16 119.3(4) . . ?
 H21 C21 C16 120.4(2) . . ?
 H21 C21 C18 120.4(2) . . ?
 H22 C22 C19 118.7(3) . . ?
 C23 C22 C19 122.5(5) . . ?
 C23 C22 H22 118.7(3) . . ?
 H23 C23 C22 121.2(3) . . ?
 C30 C23 C22 117.6(4) . . ?
 C30 C23 H23 121.2(3) . . ?
 H24 C24 C20 119.8(3) . . ?
 C34 C24 C20 120.5(4) . . ?
 C34 C24 H24 119.8(3) . . ?
 H29 C29 C17 120.2(3) . . ?
 C34 C29 C17 119.6(4) . . ?
 C34 C29 H29 120.2(3) . . ?
 C23 C30 C15 122.1(5) . . ?
 H30 C30 C15 119.0(3) . . ?
 H30 C30 C23 119.0(3) . . ?
 C31 N2 N1 112.1(3) . . ?
 N2 C31 O 126.5(3) . . ?
 C33 C31 O 116.8(3) . . ?
 C33 C31 N2 116.7(3) . . ?
 C9 C32 N1 128.7(3) . . ?
 H32 C32 N1 115.64(18) . . ?
 H32 C32 C9 115.64(16) . . ?
 C20 C33 C17 118.3(3) . . ?
 C31 C33 C17 122.4(3) . . ?
 C31 C33 C20 119.3(3) . . ?
 C29 C34 C24 119.8(4) . . ?
 H34 C34 C24 120.1(3) . . ?
 H34 C34 C29 120.1(3) . . ?
 C26 C10 C11 120.0 . . ?
 C27 C10 C11 116.6 . . ?
 C27 C10 C26 123.3 . . ?
 C13 C11 C10 120.0 . . ?
 H11 C11 C10 120.0(3) . . ?
 H11 C11 C13 120.0(3) . . ?
 C25 C4 C13 120.0 . . ?
 H4 C4 C13 120.0(3) . . ?
 H4 C4 C25 120.0(3) . . ?
 C4 C13 C11 120.0 . . ?
 H13 C13 C11 120.0(3) . . ?
 H13 C13 C4 120.0(3) . . ?
 C26 C25 C4 120.0 . . ?
 H25 C25 C4 120.0(3) . . ?
 H25 C25 C26 120.0(3) . . ?
 C25 C26 C10 120.0 . . ?
 H26 C26 C10 120.0(3) . . ?
 H26 C26 C25 120.0(3) . . ?
 H27a C27 C10 109.5 . . ?
 H27b C27 C10 109.5 . . ?
 H27b C27 H27a 109.5 . . ?
 H27c C27 C10 109.5 . . ?
 H27c C27 H27a 109.5 . . ?
 H27c C27 H27b 109.5 . . ?

loop_
  _geom_torsion_atom_site_label_1
  _geom_torsion_atom_site_label_2
  _geom_torsion_atom_site_label_3
  _geom_torsion_atom_site_label_4
  _geom_torsion
  _geom_torsion_site_symmetry_1
  _geom_torsion_site_symmetry_2
  _geom_torsion_site_symmetry_3
  _geom_torsion_site_symmetry_4
  _geom_torsion_publ_flag
 Pd O C31 N2 -2.2(2) . . . . ?
 Pd O C31 C33 177.54(18) . . . . ?
 Pd N1 N2 C31 4.2(2) . . . . ?
 Pd N1 C32 C9 -2.7(3) . . . . ?
 P C1 C8 C18 174.2(3) . . . . ?
 P C1 C14 C16 -173.1(3) . . . . ?
 P C2 C5 C12 174.8(3) . . . . ?
 P C2 C9 C7 -175.3(3) . . . . ?
 P C2 C9 C32 5.7(3) . . . . ?
 P C3 C15 C30 -179.6(5) . . . . ?
 P C3 C19 C22 -178.6(4) . . . . ?
 O C31 N2 N1 -1.3(4) . . . . ?
 O C31 C33 C17 -169.1(3) . . . . ?
 O C31 C33 C20 12.4(4) . . . . ?
 N1 N2 C31 C33 179.0(2) . . . . ?
 N1 C32 C9 C2 2.9(4) . . . . ?
 N1 C32 C9 C7 -176.2(3) . . . . ?
 C1 C8 C18 C21 -1.3(4) . . . . ?
 C1 C14 C16 C21 -1.0(4) . . . . ?
 C2 C5 C12 C6 1.3(4) . . . . ?
 C2 C9 C7 C6 -0.1(4) . . . . ?
 C3 C15 C30 C23 -2.0(7) . . . . ?
 C3 C19 C22 C23 -1.8(6) . . . . ?
 C5 C12 C6 C7 1.0(4) . . . . ?
 C6 C7 C9 C32 179.0(3) . . . . ?
 C8 C18 C21 C16 1.1(5) . . . . ?
 C14 C16 C21 C18 0.1(5) . . . . ?
 C15 C30 C23 C22 2.5(8) . . . . ?
 C17 C29 C34 C24 3.3(6) . . . . ?
 C17 C33 C20 C24 1.1(5) . . . . ?
 C17 C33 C31 N2 10.6(4) . . . . ?
 C19 C22 C23 C30 -0.6(8) . . . . ?
 C20 C24 C34 C29 -2.8(7) . . . . ?
 C20 C33 C31 N2 -167.9(4) . . . . ?
 C10 C11 C13 C4 0.0(5) . . . . ?
 C10 C26 C25 C4 -0.0(6) . . . . ?
 C11 C13 C4 C25 -0.0(6) . . . . ?

loop_
  _diffrn_refln_index_h
  _diffrn_refln_index_k
  _diffrn_refln_index_l
  _diffrn_refln_intensity_net
  _diffrn_refln_intensity_u
 -2 0 0 17931.98 97.99
 -3 0 0 43.21 3.59
 -4 0 0 6506.44 32.14
 -5 0 0 710.15 12.17
 -6 0 0 331.31 9.43
 -7 0 0 107.4 6.44
 -8 0 0 72.23 5.98
 -9 0 0 1097.35 21.23
 -10 0 0 292.8 12.39
 -11 0 0 378.47 15.04
 -12 0 0 5.36 10.84
 -13 0 0 203.49 12.66
 -13 -1 0 3.2 12.57
 -12 -1 0 255.91 13.51
 -11 -1 0 0.71 9.68
 -10 -1 0 629.95 18.03
 -9 -1 0 46.65 5.51
 -8 -1 0 173.7 8.62
 -7 -1 0 542.78 13.26
 -6 -1 0 23.56 3.49
 -5 -1 0 2212.79 22.14
 -4 -1 0 87.34 4.82
 -3 -1 0 7514.8 31.09
 -2 -1 0 111.47 4.39
 -2 1 0 4306.9 17.73
 -3 1 0 794.72 9.97
 -4 1 0 406.77 8.3
 -5 1 0 51.59 3.95
 -6 1 0 3054.48 26.95
 -7 1 0 47.71 4.6
 -8 1 0 817.16 17.06
 -9 1 0 33.18 5.11
 -10 1 0 568.65 16.63
 -11 1 0 405.08 15.06
 -12 1 0 174.61 11.16
 -13 1 0 28.22 12.33
 -14 2 0 142.51 11.65
 -13 2 0 29.31 12.24
 -12 2 0 185.99 10.93
 -11 2 0 71.17 7.47
 -10 2 0 1032.41 21.79
 -9 2 0 1179.32 21.92
 -8 2 0 427.16 12.47
 -7 2 0 272.7 9.2
 -6 2 0 3004.07 26.59
 -5 2 0 541.87 10.32
 -4 2 0 49.78 3.73
 -3 2 0 2783.7 17.84
 -2 2 0 198.19 4.52
 1 -2 0 2509.55 11.92
 0 -2 0 2174.18 11
 -1 -2 0 1112.44 9.62
 -2 -2 0 423.56 7.59
 -3 -2 0 4202.98 24.89
 -4 -2 0 9178.6 41.52
 -5 -2 0 41.98 3.98
 -6 -2 0 619.24 13.31
 -7 -2 0 145.28 7.34
 -8 -2 0 374.04 12.51
 -9 -2 0 399.51 13.84
 -10 -2 0 5.59 8.79
 -11 -2 0 78.09 7.41
 -12 -2 0 81.11 9.04
 -13 -2 0 88.37 9.19
 -12 -3 0 43.97 6.52
 -11 -3 0 93 8.18
 -10 -3 0 69.52 6.93
 -9 -3 0 295.34 12.31
 -8 -3 0 153.4 8.61
 -7 -3 0 628.12 15.31
 -6 -3 0 364.14 10.77
 -5 -3 0 1883.68 22.16
 -4 -3 0 4474.23 30.61
 -3 -3 0 3367.34 23.99
 -2 -3 0 8652.63 33.96
 -1 -3 0 864.82 9.99
 0 -3 0 8320.08 69.7
 1 -3 0 5729.78 21.49
 2 -3 0 9653.67 79.84
 -3 3 0 10.36 3.22
 -4 3 0 343.65 7.56
 -5 3 0 134.92 5.6
 -6 3 0 17.51 3.22
 -7 3 0 2538.34 27.07
 -8 3 0 37.62 4.92
 -9 3 0 850.83 18.41
 -10 3 0 32.38 5.26
 -11 3 0 756.15 20.24
 -12 3 0 7.56 10.06
 -13 3 0 6.98 11.31
 -14 3 0 31.1 13.36
 -14 4 0 0.9 12.35
 -13 4 0 4.95 11.25
 -12 4 0 1.21 9.92
 -11 4 0 174.92 10.09
 -10 4 0 645.49 17.39
 -9 4 0 2.69 6.82
 -8 4 0 1698.52 23.87
 -7 4 0 322.42 9.88
 -6 4 0 4163.21 32.29
 -5 4 0 873.95 13.25
 -4 4 0 588.33 9.96
 3 -4 0 133.94 4.94
 2 -4 0 1012.49 11.23
 1 -4 0 525.93 8.04
 0 -4 0 3.46 3.49
 -1 -4 0 2107.18 16.79
 -2 -4 0 82.5 4.43
 -3 -4 0 7829.28 38.89
 -4 -4 0 821.77 14.03
 -5 -4 0 1770.07 22.63
 -6 -4 0 20.2 4.29
 -7 -4 0 1010 19.94
 -8 -4 0 918.5 20.68
 -9 -4 0 -0.89 8.7
 -10 -4 0 10.87 9.73
 -11 -4 0 2.11 10.75
 -12 -4 0 117.49 10.27
 -12 -5 0 -0.89 12.95
 -11 -5 0 49.74 7.32
 -10 -5 0 17.35 10.57
 -9 -5 0 1.11 8.95
 -8 -5 0 587.89 17
 -7 -5 0 56.5 6.07
 -6 -5 0 1224.97 21.25
 -5 -5 0 441.17 12
 -4 -5 0 2985.96 28.09
 -3 -5 0 100.03 5.49
 -2 -5 0 5986.04 33.54
 -1 -5 0 2245.85 19.17
 0 -5 0 950.05 11.89
 1 -5 0 38.94 3.5
 2 -5 0 522.82 8.88
 3 -5 0 2510.67 19.78
 4 -5 0 60.68 3.95
 -5 5 0 3083.32 25.75
 -6 5 0 5.05 4.75
 -7 5 0 2670.35 28.23
 -8 5 0 867 17.3
 -9 5 0 163.06 8.52
 -10 5 0 162.95 9.2
 -11 5 0 55.08 6.38
 -12 5 0 185.53 10.97
 -13 5 0 28.69 11.83
 -14 5 0 25.38 12.73
 -14 6 0 87.39 8.97
 -13 6 0 31.2 11.92
 -12 6 0 82.36 7.35
 -11 6 0 236.12 11.25
 -10 6 0 4.01 7.75
 -9 6 0 516.6 14.54
 -8 6 0 58.61 5.54
 -7 6 0 2051.93 25.11
 -6 6 0 1641.08 20.71
 5 -6 0 791.57 13.37
 4 -6 0 842.19 13
 3 -6 0 1454.81 16.21
 2 -6 0 2456.87 20.39
 1 -6 0 1.28 3.57
 0 -6 0 2.29 3.7
 -1 -6 0 1172.71 15.51
 -2 -6 0 2269.22 22.48
 -3 -6 0 1502.76 19.68
 -4 -6 0 159.82 7.33
 -5 -6 0 1198.68 20.14
 -6 -6 0 379.83 12.68
 -7 -6 0 1423.65 25.12
 -8 -6 0 21.28 9.33
 -9 -6 0 64.36 7.16
 -10 -6 0 -0.83 11.03
 -11 -6 0 76.71 8.55
 -11 -7 0 -0.4 13
 -10 -7 0 90.02 8.81
 -9 -7 0 213.34 11.82
 -8 -7 0 165.23 10
 -7 -7 0 309.73 13
 -6 -7 0 463.86 14.46
 -5 -7 0 1872.77 26.44
 -4 -7 0 97.81 6.24
 -3 -7 0 41.97 4.48
 -2 -7 0 50.32 4.59
 -1 -7 0 1183.91 16.31
 0 -7 0 577.68 11
 1 -7 0 408.29 9.16
 2 -7 0 573.98 10.8
 3 -7 0 1304.14 16.44
 4 -7 0 3493.88 27.91
 5 -7 0 14.42 2.99
 6 -7 0 1911.45 23.21
 -7 7 0 97.24 6.19
 -8 7 0 1483.71 23.31
 -9 7 0 289.72 11.19
 -10 7 0 156.7 8.69
 -11 7 0 17.4 9.1
 -12 7 0 33.43 5.47
 -13 7 0 300.29 14.66
 -14 7 0 2.31 12.28
 -14 8 0 73.94 8.57
 -13 8 0 -1.9 11.98
 -12 8 0 142.76 9.72
 -11 8 0 2.16 9.07
 -10 8 0 192.35 9.95
 -9 8 0 36.22 4.89
 -8 8 0 18.92 7.2
 7 -8 0 1442.23 21.88
 6 -8 0 70.23 5.21
 5 -8 0 1581.12 20.9
 4 -8 0 174.74 7.22
 3 -8 0 5891.79 37.04
 2 -8 0 980.47 15.04
 1 -8 0 1890.12 21.05
 0 -8 0 335.19 9.26
 -1 -8 0 1448.57 19.61
 -2 -8 0 422.82 11.36
 -3 -8 0 15.49 6.08
 -4 -8 0 363.57 11.87
 -5 -8 0 24.68 4.97
 -6 -8 0 278.13 12.01
 -7 -8 0 203.01 10.75
 -8 -8 0 192.19 11.14
 -9 -8 0 11.16 11.15
 -10 -8 0 40.66 13.61
 -10 -9 0 22.73 13.69
 -9 -9 0 181.53 12.15
 -8 -9 0 2.74 10.51
 -7 -9 0 169.65 10.24
 -6 -9 0 15.27 8.79
 -5 -9 0 428.96 13.96
 -4 -9 0 69.68 6.04
 -3 -9 0 65.6 5.67
 -2 -9 0 409.6 11.86
 -1 -9 0 428.34 11.74
 0 -9 0 2105.44 24.24
 1 -9 0 336.15 9.8
 2 -9 0 2455.23 25.51
 3 -9 0 549.22 12.39
 4 -9 0 5224.41 38.1
 5 -9 0 718.6 14.88
 6 -9 0 636.13 14.34
 7 -9 0 119.84 7.2
 8 -9 0 158.12 8.39
 -9 9 0 937.12 20.29
 -10 9 0 1.57 8.59
 -11 9 0 92.14 7.76
 -12 9 0 10.22 10.6
 -13 9 0 307.97 15.26
 -14 9 0 25.19 13.44
 -14 10 0 35.72 14
 -13 10 0 165.69 12
 -12 10 0 128.04 9.55
 -11 10 0 133.07 9.18
 -10 10 0 602 17.68
 9 -10 0 630.13 17.03
 8 -10 0 154.01 8.44
 7 -10 0 9.35 6.88
 6 -10 0 584.05 14.39
 5 -10 0 267.14 9.8
 4 -10 0 494.03 12.66
 3 -10 0 723.64 14.87
 2 -10 0 270.33 9.44
 1 -10 0 1489.23 21.25
 0 -10 0 162.82 8.42
 -1 -10 0 1978.24 26.16
 -2 -10 0 2.7 6.55
 -3 -10 0 324.94 11.78
 -4 -10 0 24.75 8.37
 -5 -10 0 217.99 10.9
 -6 -10 0 88.61 7.76
 -7 -10 0 28.74 10.56
 -8 -10 0 88.67 8.77
 -9 -10 0 12.21 12.77
 -8 -11 0 38.89 6.76
 -7 -11 0 -2.13 10.71
 -6 -11 0 37.36 5.8
 -5 -11 0 11.85 9.11
 -4 -11 0 234.22 11.24
 -3 -11 0 203 9.97
 -2 -11 0 373.94 12.7
 -1 -11 0 224.88 9.98
 0 -11 0 1353.09 22.29
 1 -11 0 898.63 17.81
 2 -11 0 239.46 9.43
 3 -11 0 18.22 6.34
 4 -11 0 7.43 6.54
 5 -11 0 129.69 7.46
 6 -11 0 623.13 15.67
 7 -11 0 23.24 4.09
 8 -11 0 70.77 6.19
 9 -11 0 15.79 8.93
 10 -11 0 580.78 17.89
 -11 11 0 25.4 10.73
 -12 11 0 142.21 10.57
 -13 11 0 13.19 12.26
 -13 12 0 99.78 9.43
 -12 12 0 0.67 11.22
 11 -12 0 292.62 13.64
 10 -12 0 15.71 10.07
 9 -12 0 193.24 10.29
 8 -12 0 41.41 5.41
 7 -12 0 139.31 8.52
 6 -12 0 120.73 7.82
 5 -12 0 233.36 10.03
 4 -12 0 213.92 9.44
 3 -12 0 59.71 5.49
 2 -12 0 786.41 17.39
 1 -12 0 221.38 10.04
 0 -12 0 831.31 18.44
 -1 -12 0 233.06 10.63
 -2 -12 0 379.69 13.52
 -3 -12 0 143.06 9.17
 -4 -12 0 41.08 5.93
 -5 -12 0 176.97 10.87
 -6 -12 0 2.99 10.76
 -7 -12 0 24.08 12.12
 -8 -12 0 5.55 12.92
 -7 -13 0 15.38 12.67
 -6 -13 0 -2.11 11.86
 -5 -13 0 86.52 8.38
 -4 -13 0 61.34 7.04
 -3 -13 0 427.09 15.79
 -2 -13 0 0.68 8.57
 -1 -13 0 350.02 13.31
 0 -13 0 17.98 8.13
 1 -13 0 878.8 19.75
 2 -13 0 47.76 5.66
 3 -13 0 230.46 10.32
 4 -13 0 28.31 4.49
 5 -13 0 51.83 6
 6 -13 0 480.45 14.9
 7 -13 0 -0.4 8.32
 8 -13 0 345.58 13.6
 9 -13 0 3.89 8.98
 10 -13 0 313.27 14.31
 11 -13 0 34 11.72
 12 -13 0 58.96 7.29
 -13 13 0 22.87 13.06
 12 -14 0 36.8 13.1
 11 -14 0 43.19 6.3
 10 -14 0 27.37 11.16
 9 -14 0 301.73 13.58
 8 -14 0 311.89 13.4
 7 -14 0 459.66 16.01
 6 -14 0 204.34 10.54
 5 -14 0 230.19 10.74
 4 -14 0 66.17 6.25
 3 -14 0 20.7 8.52
 2 -14 0 133.85 8.49
 1 -14 0 121.14 8.73
 0 -14 0 62.5 6.4
 -1 -14 0 76.22 7.38
 -2 -14 0 378.84 14.85
 -3 -14 0 13.67 10.51
 -4 -14 0 216.91 12.79
 -5 -14 0 2.26 11.49
 -6 -14 0 61.09 7.7
 -5 -15 0 36.17 13.38
 -4 -15 0 27.21 12.79
 -3 -15 0 209.19 12.56
 -2 -15 0 126.93 10.13
 -1 -15 0 26.5 10.56
 0 -15 0 11.33 9.31
 1 -15 0 4.59 9.21
 2 -15 0 156.18 9.96
 3 -15 0 7.82 8.75
 4 -15 0 17.98 9.11
 5 -15 0 171.89 10.25
 6 -15 0 123.37 8.72
 7 -15 0 389.93 15.2
 8 -15 0 47.39 6.34
 9 -15 0 173.03 10.9
 10 -15 0 20.75 11.48
 11 -15 0 85.41 8.83
 12 -15 0 2.12 12.68
 11 -16 0 10.99 12.34
 10 -16 0 66.68 7.86
 9 -16 0 -3.37 11.4
 8 -16 0 451.73 17.48
 7 -16 0 4.07 10.38
 6 -16 0 231.49 12.16
 5 -16 0 26.29 5.32
 4 -16 0 268.91 12.88
 3 -16 0 31.1 5.59
 2 -16 0 170.95 10.42
 1 -16 0 -0.33 10.05
 0 -16 0 -0.95 9.99
 -1 -16 0 26.43 11.22
 -2 -16 0 12.38 11.49
 -3 -16 0 21.88 12.65
 -4 -16 0 5.53 12.75
 -3 -17 0 3.47 12.63
 -2 -17 0 22.83 12.82
 -1 -17 0 1.26 11.62
 0 -17 0 2.64 11.15
 1 -17 0 31.35 11.86
 2 -17 0 -4.69 10.94
 3 -17 0 231.5 12.69
 4 -17 0 10.5 10.88
 5 -17 0 444.07 17.22
 6 -17 0 -0.95 10.71
 7 -17 0 210.25 12.64
 8 -17 0 30.48 12.27
 9 -17 0 118.5 10.2
 10 -17 0 10.95 12.31
 9 -18 0 22.47 13.18
 8 -18 0 17.59 12.39
 7 -18 0 3.36 11.6
 6 -18 0 111.62 9.12
 5 -18 0 10.31 11.69
 4 -18 0 143.96 11.18
 3 -18 0 1.38 11.28
 2 -18 0 102.55 9.46
 1 -18 0 -3.06 11.77
 0 -18 0 34.31 13.18
 -1 -18 0 5.7 12.8
 1 -19 0 37.21 13.84
 2 -19 0 13.99 12.76
 3 -19 0 77.45 8.81
 4 -19 0 75.85 8.97
 5 -19 0 76.75 8.9
 6 -19 0 32.89 12.98
 7 -19 0 9.81 12.79
 8 -19 0 18.64 13.22
 7 -19 -1 -0.64 12.75
 6 -19 -1 6.5 12.69
 5 -19 -1 26.8 13.37
 4 -19 -1 9.61 12.74
 3 -19 -1 28.88 13.62
 2 -19 -1 3.12 13.01
 0 -18 -1 76.34 9.09
 1 -18 -1 -6.79 12.87
 2 -18 -1 63.78 8.07
 3 -18 -1 6.02 11.84
 4 -18 -1 166.57 11.65
 5 -18 -1 1.52 11.65
 6 -18 -1 36.99 6.14
 7 -18 -1 -0.14 11.89
 8 -18 -1 0.63 12.07
 9 -18 -1 7.33 12.72
 10 -17 -1 20.86 12.71
 9 -17 -1 21.58 12.29
 8 -17 -1 4.65 11.31
 7 -17 -1 102.08 8.92
 6 -17 -1 12.68 10.94
 5 -17 -1 434.58 17.59
 4 -17 -1 27.24 11.56
 3 -17 -1 199.56 12.52
 2 -17 -1 24.91 11.68
 1 -17 -1 94.4 9.14
 0 -17 -1 21.88 12.32
 -1 -17 -1 23.34 12.83
 -2 -17 -1 9.66 12.7
 -3 -16 -1 9.1 12.57
 -2 -16 -1 1.33 11.69
 -1 -16 -1 96.01 8.78
 0 -16 -1 2.67 10.47
 1 -16 -1 24.18 11.01
 2 -16 -1 64.13 7.27
 3 -16 -1 217.95 11.88
 4 -16 -1 349.6 14.92
 5 -16 -1 159.43 10.47
 6 -16 -1 109.28 8.71
 7 -16 -1 23.43 10.75
 8 -16 -1 208.89 12.07
 9 -16 -1 4.45 10.9
 10 -16 -1 34.3 12.35
 11 -16 -1 -0.01 12.33
 12 -15 -1 7.12 12.43
 11 -15 -1 54.75 7.13
 10 -15 -1 -1.97 11.16
 9 -15 -1 141.09 10.01
 8 -15 -1 68.47 7.82
 7 -15 -1 97.81 8.1
 6 -15 -1 256.97 12.4
 5 -15 -1 116.38 8.91
 4 -15 -1 174.43 10.11
 3 -15 -1 9 9.22
 2 -15 -1 288.42 13.04
 1 -15 -1 -0.33 9.1
 0 -15 -1 3.59 9.53
 -1 -15 -1 110.95 8.81
 -2 -15 -1 21.92 11.62
 -3 -15 -1 88.13 8.8
 -4 -15 -1 22.72 12.81
 -5 -14 -1 2.45 12.21
 -4 -14 -1 152.54 10.93
 -3 -14 -1 -4.8 10.81
 -2 -14 -1 198.34 11.56
 -1 -14 -1 13.37 9.67
 0 -14 -1 0.48 8.64
 1 -14 -1 39.62 5.77
 2 -14 -1 -0.69 8.33
 3 -14 -1 328.16 12.91
 4 -14 -1 140.59 8.79
 5 -14 -1 434.14 14.72
 6 -14 -1 -4.37 8.87
 7 -14 -1 483.81 16.28
 8 -14 -1 209.18 11.44
 9 -14 -1 356.29 14.76
 10 -14 -1 28.58 11.03
 11 -14 -1 41.01 6.56
 12 -14 -1 92.6 8.93
 13 -13 -1 51.33 7.38
 12 -13 -1 56.77 7.42
 11 -13 -1 23.65 11.37
 10 -13 -1 363.53 15.12
 9 -13 -1 1.75 9.19
 8 -13 -1 923.84 22
 7 -13 -1 32.72 5.64
 6 -13 -1 557 16.27
 5 -13 -1 85.26 6.9
 4 -13 -1 119.88 7.62
 3 -13 -1 257.82 11.04
 2 -13 -1 214.73 10.36
 1 -13 -1 439.89 14.17
 0 -13 -1 60.59 6.37
 -1 -13 -1 418.07 14.8
 -2 -13 -1 -2.43 9.5
 -3 -13 -1 333.01 14.45
 -4 -13 -1 9.51 10.68
 -5 -13 -1 58.32 7.39
 -6 -13 -1 5.69 11.99
 -7 -12 -1 9.78 12.61
 -6 -12 -1 36.54 12.35
 -5 -12 -1 53.23 6.75
 -4 -12 -1 75.83 8.04
 -3 -12 -1 300.8 12.87
 -2 -12 -1 610.21 17.7
 -1 -12 -1 81.65 6.99
 0 -12 -1 580.18 15.89
 1 -12 -1 0.86 7.35
 2 -12 -1 1409.98 23.77
 3 -12 -1 4.44 6.92
 4 -12 -1 159.45 8.38
 5 -12 -1 271.62 10.72
 6 -12 -1 693.04 17.1
 7 -12 -1 1091.88 21.96
 8 -12 -1 208.16 10.52
 9 -12 -1 365.85 14.22
 10 -12 -1 60.64 7.03
 11 -12 -1 360.11 15.08
 12 -12 -1 -2.53 11.43
 13 -12 -1 76.94 8.37
 14 -11 -1 44.11 6.74
 13 -11 -1 11.23 12.04
 12 -11 -1 159.8 10.65
 11 -11 -1 23.17 10.29
 10 -11 -1 302.04 13.23
 9 -11 -1 352.98 13.42
 8 -11 -1 30.05 4.85
 7 -11 -1 337.27 12.32
 6 -11 -1 171.92 8.69
 5 -11 -1 388.91 12.15
 4 -11 -1 81.31 6.12
 3 -11 -1 73.16 5.85
 2 -11 -1 93.23 6.59
 1 -11 -1 516.37 14.27
 0 -11 -1 604.02 15.39
 -1 -11 -1 130.18 7.99
 -2 -11 -1 398.6 13.34
 -3 -11 -1 136.78 8.68
 -4 -11 -1 447.1 15.66
 -5 -11 -1 4.08 9.49
 -6 -11 -1 82.59 8.18
 -7 -11 -1 1.44 11.28
 -8 -11 -1 11.27 12.63
 -8 -10 -1 61.98 8.07
 -7 -10 -1 29.35 11.3
 -6 -10 -1 39.27 6.13
 -5 -10 -1 57.76 6.37
 -4 -10 -1 58.74 6.27
 -3 -10 -1 680.82 17.3
 -2 -10 -1 60.8 5.76
 -1 -10 -1 1310.53 22.09
 0 -10 -1 17.6 7.17
 1 -10 -1 3393.7 33.1
 2 -10 -1 25.36 3.85
 3 -10 -1 619.77 13.98
 4 -10 -1 48.01 5.01
 5 -10 -1 94.62 6.14
 6 -10 -1 276.53 10.13
 7 -10 -1 46.08 4.97
 8 -10 -1 -0.01 7.45
 9 -10 -1 322.44 12.6
 10 -10 -1 777.46 19.77
 11 -10 -1 374.07 14.86
 12 -10 -1 159.68 10.84
 13 -10 -1 90.24 8.61
 14 -10 -1 46.48 7.03
 -14 9 1 21.23 12.74
 13 -9 -1 415.54 17.05
 12 -9 -1 2.96 10.09
 11 -9 -1 320.55 13.28
 10 -9 -1 21.57 8.98
 9 -9 -1 964.58 20.72
 8 -9 -1 1.15 6.9
 7 -9 -1 344.5 11.34
 6 -9 -1 330.78 10.73
 5 -9 -1 412.62 11.26
 4 -9 -1 2622.94 27.54
 3 -9 -1 58.47 5.05
 2 -9 -1 1296.72 18.79
 1 -9 -1 2.11 5.52
 0 -9 -1 3161.81 30.76
 -1 -9 -1 426.33 12.08
 -2 -9 -1 461.03 12.79
 -3 -9 -1 3.16 6.72
 -4 -9 -1 71.67 6.24
 -5 -9 -1 306.21 12.3
 -6 -9 -1 11.8 9.15
 -7 -9 -1 29.12 10.4
 -8 -9 -1 2.37 10.81
 -9 -9 -1 140.35 11.68
 -10 -8 -1 61.1 8.67
 -9 -8 -1 58.47 7.69
 -8 -8 -1 127.46 9.5
 -7 -8 -1 73.31 7.06
 -6 -8 -1 87.86 7.29
 -5 -8 -1 7.21 7.78
 -4 -8 -1 223.59 9.78
 -3 -8 -1 300.29 10.67
 -2 -8 -1 428.08 11.77
 -1 -8 -1 1080.6 17.55
 0 -8 -1 580.05 12.5
 1 -8 -1 4021.33 31.49
 2 -8 -1 15.25 2.89
 3 -8 -1 3414.18 28.9
 4 -8 -1 459.9 11.11
 5 -8 -1 2456.8 26.09
 6 -8 -1 4.4 5.66
 7 -8 -1 875.39 17.07
 8 -8 -1 18.61 7.15
 9 -8 -1 22.66 7.92
 10 -8 -1 431.64 14.49
 11 -8 -1 -0.66 8.73
 12 -8 -1 185.18 10.73
 -13 8 1 6.09 11.34
 -14 8 1 192.81 12.8
 -14 7 1 20.92 12.46
 -13 7 1 356.75 15.66
 -12 7 1 83.21 7.56
 11 -7 -1 46.46 5.73
 10 -7 -1 288.24 11.91
 9 -7 -1 899.36 19
 8 -7 -1 449.19 12.78
 7 -7 -1 264.31 9.51
 6 -7 -1 2065.37 23.93
 5 -7 -1 261.11 8.39
 4 -7 -1 5553 35.72
 3 -7 -1 5250.64 33.39
 2 -7 -1 2389.57 22.4
 1 -7 -1 1160.95 15.69
 0 -7 -1 1923.43 21.04
 -1 -7 -1 3296.06 28.65
 -2 -7 -1 34.39 3.92
 -3 -7 -1 134.18 7.02
 -4 -7 -1 20.1 3.65
 -5 -7 -1 998.25 20.1
 -6 -7 -1 387.64 13.41
 -7 -7 -1 48.61 6.07
 -8 -7 -1 171.79 10.55
 -9 -7 -1 127.89 10.13
 -10 -7 -1 198.32 13.02
 -11 -6 -1 64.59 8.4
 -10 -6 -1 -0.77 11.53
 -9 -6 -1 224.68 12.06
 -8 -6 -1 12.88 9.38
 -7 -6 -1 1333.32 25.43
 -6 -6 -1 21.99 8.29
 -5 -6 -1 1159.66 20.62
 -4 -6 -1 -1.67 5.94
 -3 -6 -1 201.83 7.78
 -2 -6 -1 126.95 6.1
 -1 -6 -1 39.1 3.74
 0 -6 -1 397.46 8.93
 1 -6 -1 72.26 4.17
 2 -6 -1 3394.73 24.69
 3 -6 -1 1237.79 15.43
 4 -6 -1 8332.82 40.89
 5 -6 -1 3913.92 29.77
 6 -6 -1 1155.95 17.34
 7 -6 -1 1574.57 21.45
 8 -6 -1 344.07 11.18
 9 -6 -1 1099.36 20.95
 10 -6 -1 50.09 5.56
 -11 6 1 139.07 8.85
 -12 6 1 35.77 5.32
 -13 6 1 242.74 12.79
 -14 6 1 48.3 7.06
 -14 5 1 54.69 7.31
 -13 5 1 43.23 6.82
 -12 5 1 352.96 14.4
 -11 5 1 47.97 5.68
 -10 5 1 21.42 7.88
 9 -5 -1 134.75 7.75
 8 -5 -1 273.84 9.82
 7 -5 -1 3596.16 32.24
 6 -5 -1 5.71 4.78
 5 -5 -1 2879.84 24.69
 4 -5 -1 268.33 7.41
 3 -5 -1 10871.61 41.67
 2 -5 -1 1405.77 14.82
 1 -5 -1 1080.96 12.97
 0 -5 -1 170.78 5.7
 -1 -5 -1 1508.14 16.72
 -2 -5 -1 614.72 11.46
 -3 -5 -1 75.11 4.99
 -4 -5 -1 699.77 14.28
 -5 -5 -1 299.02 10.71
 -6 -5 -1 1495.3 23.92
 -7 -5 -1 223.55 10.58
 -8 -5 -1 481.28 15.96
 -9 -5 -1 9.08 9.58
 -10 -5 -1 71.01 7.73
 -11 -5 -1 34.13 6.19
 -12 -4 -1 16.41 13.04
 -11 -4 -1 2.37 11.32
 -10 -4 -1 7.98 10.27
 -9 -4 -1 189.75 10.58
 -8 -4 -1 189.85 10.28
 -7 -4 -1 856.03 19.07
 -6 -4 -1 2.76 6.56
 -5 -4 -1 2696.76 28.76
 -4 -4 -1 213.49 7.83
 -3 -4 -1 2778.18 24.54
 -2 -4 -1 707.97 11.5
 -1 -4 -1 3681.01 23.67
 0 -4 -1 -2.05 3.36
 1 -4 -1 1696.52 14.6
 2 -4 -1 7251.78 30.04
 3 -4 -1 22.54 3.34
 4 -4 -1 8203.2 36.69
 5 -4 -1 57.07 4.12
 6 -4 -1 4426.21 32.29
 7 -4 -1 70.71 5.25
 8 -4 -1 1961.41 25.77
 -9 4 1 107.57 7.22
 -10 4 1 195.41 9.57
 -11 4 1 139.48 8.79
 -12 4 1 -0.09 9.65
 -13 4 1 191.18 11.83
 -14 4 1 6.34 12.22
 -14 3 1 45.35 6.94
 -13 3 1 -0.1 10.74
 -12 3 1 124.17 9.02
 -11 3 1 727.07 19.11
 -10 3 1 54.61 5.65
 -9 3 1 1075.88 20.25
 -8 3 1 139.96 7.36
 7 -3 -1 5883.58 39.83
 6 -3 -1 3362.25 27.74
 5 -3 -1 1279.79 15.69
 4 -3 -1 80.45 4.18
 3 -3 -1 7762.55 30.88
 2 -3 -1 2735.29 16.96
 1 -3 -1 1570.24 12.55
 0 -3 -1 18.62 3.07
 -1 -3 -1 1768.79 15.1
 -2 -3 -1 4626.53 26.76
 -3 -3 -1 4155.23 28.03
 -4 -3 -1 299.03 8.67
 -5 -3 -1 852.7 15.66
 -6 -3 -1 1007.64 18.11
 -7 -3 -1 1914.09 27.07
 -8 -3 -1 15.52 8.22
 -9 -3 -1 182.34 9.87
 -10 -3 -1 -1.01 9.57
 -11 -3 -1 82.04 8.2
 -12 -3 -1 51.27 7.43
 -12 -2 -1 19.45 12.24
 -11 -2 -1 20.96 11.06
 -10 -2 -1 4.02 9.27
 -9 -2 -1 140.11 8.75
 -8 -2 -1 663.6 16.95
 -7 -2 -1 26.05 4.72
 -6 -2 -1 924.71 17.04
 -5 -2 -1 4.36 4.94
 -4 -2 -1 4211.01 29.8
 -3 -2 -1 490.35 9.45
 -2 -2 -1 1874.01 15.89
 -1 -2 -1 484.84 7.6
 0 -2 -1 178.81 4.43
 1 -2 -1 1101.1 9.08
 2 -2 -1 6046.79 22.72
 3 -2 -1 41.1 3.76
 4 -2 -1 181.56 5.76
 5 -2 -1 926.92 13.1
 6 -2 -1 829.53 13.84
 -7 2 1 1640.06 21.49
 -8 2 1 1632.35 23.11
 -9 2 1 1019.47 19.62
 -10 2 1 902.72 20.09
 -11 2 1 168.57 9.94
 -12 2 1 160 10.02
 -13 2 1 1.03 10.86
 -14 2 1 60.54 8.07
 -14 1 1 9.59 12.9
 -13 1 1 5.4 11.17
 -12 1 1 20.29 10.28
 -11 1 1 397.47 14.6
 -10 1 1 928.93 20.64
 -9 1 1 3.68 7.03
 -8 1 1 1382.35 21.7
 -7 1 1 1408.04 20.04
 -6 1 1 4371.9 31.87
 5 -1 -1 139.5 5.52
 4 -1 -1 105.47 4.67
 3 -1 -1 547.78 8.33
 2 -1 -1 105.35 3.69
 0 -1 -1 70.44 2.4
 -1 -1 -1 92.02 3.57
 -2 -1 -1 192.87 5.61
 -3 -1 -1 11745.81 42.15
 -4 -1 -1 1253.6 15.86
 -5 -1 -1 1521.54 19.4
 -6 -1 -1 2.33 5.13
 -7 -1 -1 150.53 7.58
 -8 -1 -1 368.45 12.36
 -9 -1 -1 4.92 7.91
 -10 -1 -1 41.98 5.53
 -11 -1 -1 4.44 9.94
 -12 -1 -1 198.01 12.01
 -13 0 -1 109.92 9.94
 -12 0 -1 12.13 11.4
 -11 0 -1 59.24 6.91
 -10 0 -1 250.96 11.94
 -9 0 -1 501.52 15.07
 -8 0 -1 5.63 6.77
 -7 0 -1 2.3 5.86
 -6 0 -1 242.58 8.42
 -5 0 -1 2216.53 22.57
 -4 0 -1 9222.35 40.5
 -3 0 -1 3502.27 22.01
 -2 0 -1 10650.93 85.78
 -1 0 -1 12.49 1.99
 2 0 -1 3153.47 15.45
 3 0 -1 2.74 3.6
 4 0 -1 2729.18 20.4
 -5 0 1 4260.68 28.73
 -6 0 1 37.28 3.85
 -7 0 1 1844.05 23.4
 -8 0 1 63.7 5.77
 -9 0 1 1083.34 21.11
 -10 0 1 82.59 7.27
 -11 0 1 527.85 17.19
 -12 0 1 9.07 10.37
 -13 0 1 81.98 8.33
 -13 -1 1 18.07 12.39
 -12 -1 1 242.71 12.8
 -11 -1 1 4.47 9.44
 -10 -1 1 1127.53 23.42
 -9 -1 1 282.97 11.12
 -8 -1 1 248.61 9.88
 -7 -1 1 30.69 4.18
 -6 -1 1 1331 18.35
 -5 -1 1 516.34 10.49
 -4 -1 1 1018.83 13.16
 3 1 -1 1957.64 15.7
 2 1 -1 329.9 6
 -1 1 -1 16015.12 82.3
 -2 1 -1 31.83 3.39
 -3 1 -1 2561.18 18.4
 -4 1 -1 3705.13 25.15
 -5 1 -1 36.64 3.75
 -6 1 -1 1541.38 20.02
 -7 1 -1 30.06 4.16
 -8 1 -1 461.9 13.31
 -9 1 -1 378.94 13.21
 -10 1 -1 52.67 6.11
 -11 1 -1 204.97 11.3
 -12 1 -1 91.95 8.75
 -13 1 -1 42.35 7.05
 -13 2 -1 37.46 12.94
 -12 2 -1 262.54 13.26
 -11 2 -1 6.77 9.68
 -10 2 -1 1061.64 22.72
 -9 2 -1 377.97 13.13
 -8 2 -1 277.16 10.54
 -7 2 -1 308.74 9.99
 -6 2 -1 2239.04 24.06
 -5 2 -1 1314.86 16.83
 -4 2 -1 645.01 10.59
 -3 2 -1 327.13 7.01
 -2 2 -1 2071.09 14.3
 -1 2 -1 7799.22 61.3
 0 2 -1 4094.68 15.72
 1 2 -1 13622.95 84.03
 2 2 -1 2788.08 17.22
 -3 -2 1 1576.03 14.87
 -4 -2 1 2776.53 22.1
 -5 -2 1 139.95 6.06
 -6 -2 1 1196.23 17.85
 -7 -2 1 229.18 8.92
 -8 -2 1 664.13 16.03
 -9 -2 1 277.92 11.28
 -10 -2 1 87.06 7.75
 -11 -2 1 100.53 8.62
 -12 -2 1 232.01 12.78
 -13 -2 1 42.08 6.75
 -13 -3 1 63.18 8.23
 -12 -3 1 7.29 11.67
 -11 -3 1 156.71 9.97
 -10 -3 1 169.46 10.05
 -9 -3 1 562.04 16.23
 -8 -3 1 15.56 7.26
 -7 -3 1 103.03 6.41
 -6 -3 1 383.07 10.64
 -5 -3 1 2363.33 23.82
 -4 -3 1 3838.23 27.49
 -3 -3 1 2647.5 20.52
 -2 -3 1 1901.93 15.8
 -1 -3 1 1728.44 13.27
 0 3 -1 18739.35 104.27
 -1 3 -1 1029.22 9.85
 -2 3 -1 2652.28 17.02
 -3 3 -1 334.6 7.14
 -4 3 -1 3317.94 23.75
 -5 3 -1 1147.51 15.51
 -6 3 -1 136.13 6.49
 -7 3 -1 1356.29 20.25
 -8 3 -1 85.47 6.42
 -9 3 -1 1029.4 20.88
 -10 3 -1 12.52 8.29
 -11 3 -1 693.85 19.99
 -12 3 -1 6.75 10.65
 -13 3 -1 96.08 9.73
 -13 4 -1 4.37 11.65
 -12 4 -1 24.92 10.94
 -11 4 -1 202.72 11.06
 -10 4 -1 644.41 17.83
 -9 4 -1 7.14 7.36
 -8 4 -1 1411.88 22.34
 -7 4 -1 318.51 10.28
 -6 4 -1 4297.5 33.28
 -5 4 -1 13.76 2.7
 -4 4 -1 1014.72 13.64
 -3 4 -1 29.09 3.29
 -2 4 -1 7224.91 29.63
 -1 4 -1 5297.31 24.09
 0 -4 1 528.95 7.98
 -1 -4 1 35.92 3.73
 -2 -4 1 430.2 8.39
 -3 -4 1 7436.37 36.76
 -4 -4 1 93.3 5.38
 -5 -4 1 1324.96 18.53
 -6 -4 1 0.94 5.62
 -7 -4 1 124.24 7.39
 -8 -4 1 566.7 15.39
 -9 -4 1 5.13 8.43
 -10 -4 1 124.36 9.02
 -11 -4 1 -1.36 10.7
 -12 -4 1 257.28 14.19
 -12 -5 1 5.77 12.69
 -11 -5 1 37.57 6.26
 -10 -5 1 1.85 9.74
 -9 -5 1 148.92 9.43
 -8 -5 1 347.93 12.86
 -7 -5 1 54.15 5.66
 -6 -5 1 822.87 16.76
 -5 -5 1 66.34 5.21
 -4 -5 1 4080.25 31.68
 -3 -5 1 1662.52 18.98
 -2 -5 1 3795.06 26.04
 -1 -5 1 507.45 9.11
 0 -5 1 1545.51 14.73
 1 -5 1 2490.39 18.37
 2 -5 1 24.26 3.09
 3 -5 1 1112.63 13.63
 -4 5 -1 50.79 3.71
 -5 5 -1 425.2 9.94
 -6 5 -1 204.06 7.69
 -7 5 -1 1305.89 19.99
 -8 5 -1 693.33 16.09
 -9 5 -1 811.42 18.33
 -10 5 -1 224.63 10.7
 -11 5 -1 76.61 7.37
 -12 5 -1 67.9 7.24
 -13 5 -1 -0.42 11.34
 -14 6 -1 30.58 13.61
 -13 6 -1 4.89 11.41
 -12 6 -1 36.26 5.59
 -11 6 -1 449.71 16.06
 -10 6 -1 5.9 8.45
 -9 6 -1 550.54 15.44
 -8 6 -1 116.22 7.53
 -7 6 -1 1916.79 24.79
 -6 6 -1 1423.67 19.64
 5 -6 1 55.15 4.07
 4 -6 1 952.52 13.97
 3 -6 1 618.69 10.71
 2 -6 1 1400.99 15.56
 1 -6 1 339.02 7.72
 0 -6 1 8.26 3.66
 -1 -6 1 619.22 10.81
 -2 -6 1 2597.01 23.34
 -3 -6 1 4309.59 32.17
 -4 -6 1 320.42 9.8
 -5 -6 1 940.87 17.37
 -6 -6 1 417.82 12.8
 -7 -6 1 1531.73 25.31
 -8 -6 1 0.45 8.45
 -9 -6 1 151.53 9.65
 -10 -6 1 -1.23 10.27
 -11 -6 1 68.56 8.12
 -11 -7 1 -0.16 12.44
 -10 -7 1 34.17 5.86
 -9 -7 1 182.61 10.89
 -8 -7 1 313.21 13.24
 -7 -7 1 772.73 19.5
 -6 -7 1 192.71 9.53
 -5 -7 1 1590.58 23.87
 -4 -7 1 765.74 15.44
 -3 -7 1 1337.65 19.3
 -2 -7 1 -0.16 4.67
 -1 -7 1 1698.85 19.32
 0 -7 1 33.7 3.36
 1 -7 1 3.81 3.83
 2 -7 1 2071.99 20.35
 3 -7 1 463.55 9.96
 4 -7 1 3106.9 26.61
 5 -7 1 105.9 5.55
 6 -7 1 2093.37 24.47
 7 -7 1 18.63 6.54
 8 -7 1 1025.21 19.74
 -9 7 -1 73.07 6.46
 -10 7 -1 166.74 9.35
 -11 7 -1 107.46 8.43
 -12 7 -1 8.91 10.37
 -13 7 -1 83.15 8.6
 -14 7 -1 5.43 12.59
 -13 8 -1 34.73 6.13
 -12 8 -1 156.18 10.48
 11 -8 1 4.38 9.33
 10 -8 1 15.43 8.6
 9 -8 1 27.81 4.23
 8 -8 1 116.41 7.43
 7 -8 1 1086.45 19.41
 6 -8 1 -0.97 5.75
 5 -8 1 1370.61 19.38
 4 -8 1 71.56 4.91
 3 -8 1 3452.79 28.64
 2 -8 1 148.1 6.28
 1 -8 1 1775.39 20.14
 0 -8 1 24.88 3.35
 -1 -8 1 2057.8 22.73
 -2 -8 1 497.11 11.83
 -3 -8 1 4.75 5.74
 -4 -8 1 331.86 11.18
 -5 -8 1 119.62 7.64
 -6 -8 1 707.25 17.83
 -7 -8 1 312.72 13.01
 -8 -8 1 307.07 13.28
 -9 -8 1 -0.09 10.49
 -10 -8 1 52.6 7.74
 -11 -8 1 52.89 8.14
 -10 -9 1 13.84 12.5
 -9 -9 1 108.71 9.5
 -8 -9 1 -2.44 9.82
 -7 -9 1 516.24 16.82
 -6 -9 1 -0.95 8.6
 -5 -9 1 276.05 11.33
 -4 -9 1 16.38 7.27
 -3 -9 1 -5.42 6.41
 -2 -9 1 54.29 5.22
 -1 -9 1 126.76 6.6
 0 -9 1 598.48 12.81
 1 -9 1 147.45 6.6
 2 -9 1 2371.09 24.91
 3 -9 1 607.49 12.79
 4 -9 1 3755.09 32.48
 5 -9 1 955.68 17.01
 6 -9 1 918.27 17.53
 7 -9 1 521.83 14.13
 8 -9 1 283.56 11.09
 9 -9 1 248.45 10.96
 10 -9 1 3.36 8.45
 11 -9 1 42.08 5.44
 12 -9 1 29.17 11.41
 13 -9 1 85.07 8.96
 13 -10 1 218.35 13.08
 12 -10 1 50.33 6.6
 11 -10 1 46.51 5.84
 10 -10 1 200.88 10.48
 9 -10 1 484.12 15.29
 8 -10 1 185.9 9.48
 7 -10 1 44.69 5.25
 6 -10 1 605.04 14.75
 5 -10 1 379.45 11.44
 4 -10 1 2075.73 25.7
 3 -10 1 2742.52 28.99
 2 -10 1 913.08 16.36
 1 -10 1 1312.5 19.61
 0 -10 1 361.44 10.82
 -1 -10 1 930.98 17.4
 -2 -10 1 16.94 6.83
 -3 -10 1 34.11 4.66
 -4 -10 1 19.72 7.67
 -5 -10 1 500.46 15.55
 -6 -10 1 246.42 11.68
 -7 -10 1 30.46 5.37
 -8 -10 1 86.65 8.35
 -9 -10 1 26.81 12.63
 -9 -11 1 33.42 13.8
 -8 -11 1 75.23 8.37
 -7 -11 1 18.63 11.01
 -6 -11 1 14.06 9.9
 -5 -11 1 -2.54 8.77
 -4 -11 1 256.96 11.22
 -3 -11 1 387.63 12.96
 -2 -11 1 102.25 7.15
 -1 -11 1 1054.05 19.79
 0 -11 1 461.54 13
 1 -11 1 1722.11 24.08
 2 -11 1 142.7 7.4
 3 -11 1 1466.12 22.1
 4 -11 1 333.85 11.16
 5 -11 1 462 12.99
 6 -11 1 72.34 6.01
 7 -11 1 84.53 6.48
 8 -11 1 93.55 7.25
 9 -11 1 -1.3 8.82
 10 -11 1 532.45 17.65
 11 -11 1 3.29 9.95
 12 -11 1 154.86 10.51
 13 -11 1 4.72 12.77
 13 -12 1 122.27 10.48
 12 -12 1 -4.9 11.86
 11 -12 1 180.43 11.23
 10 -12 1 0.96 9.81
 9 -12 1 519.02 16.73
 8 -12 1 29.22 4.75
 7 -12 1 452.27 14.26
 6 -12 1 201.08 9.74
 5 -12 1 379.31 12.48
 4 -12 1 1113.77 20.71
 3 -12 1 36.77 5
 2 -12 1 591.07 15.05
 1 -12 1 2.38 7.06
 0 -12 1 1150.65 21.35
 -1 -12 1 111.14 7.86
 -2 -12 1 704.93 17.79
 -3 -12 1 11.31 8.29
 -4 -12 1 53.92 6.03
 -5 -12 1 79.07 7.56
 -6 -12 1 1.15 10.25
 -7 -12 1 23.51 11.81
 -8 -12 1 -0.79 12.51
 -7 -13 1 11.42 12.06
 -6 -13 1 3.1 11.36
 -5 -13 1 17.19 10.64
 -4 -13 1 38.95 5.57
 -3 -13 1 313.65 13.38
 -2 -13 1 2.55 8.29
 -1 -13 1 897.36 20.3
 0 -13 1 9.05 8.01
 1 -13 1 1507.19 25.52
 2 -13 1 17.23 7.63
 3 -13 1 252.15 10.52
 4 -13 1 76.04 6.47
 5 -13 1 130.47 8.15
 6 -13 1 268.13 11.5
 7 -13 1 -0.57 8.24
 8 -13 1 59.51 6.23
 9 -13 1 89.18 7.94
 10 -13 1 481.64 17.29
 11 -13 1 69.68 7.97
 12 -13 1 85.55 8.75
 12 -14 1 74.31 8.46
 11 -14 1 35.34 12.35
 10 -14 1 157.62 10.81
 9 -14 1 40.3 6.31
 8 -14 1 8.11 9.24
 7 -14 1 90.7 7.45
 6 -14 1 4.97 8.34
 5 -14 1 21.61 8.41
 4 -14 1 10.96 8.12
 3 -14 1 47.01 5.51
 2 -14 1 277.42 11.77
 1 -14 1 445.39 14.91
 0 -14 1 597.39 17.37
 -1 -14 1 159.56 10.02
 -2 -14 1 318.39 13.45
 -3 -14 1 54.66 6.96
 -4 -14 1 143.96 10.12
 -5 -14 1 -3.16 11.37
 -6 -14 1 32.19 5.98
 -5 -15 1 53.96 7.59
 -4 -15 1 65.27 7.9
 -3 -15 1 197.41 11.96
 -2 -15 1 258.44 12.98
 -1 -15 1 196.02 11.31
 0 -15 1 186.32 11.43
 1 -15 1 127.26 9.06
 2 -15 1 420.31 14.65
 3 -15 1 5.27 8.6
 4 -15 1 8.6 8.57
 5 -15 1 46.66 5.62
 6 -15 1 160.34 9.88
 7 -15 1 230.69 12.06
 8 -15 1 98.02 8.39
 9 -15 1 86.05 8.27
 10 -15 1 40.18 6.89
 11 -15 1 64.03 7.79
 12 -15 1 -0.45 12.64
 11 -16 1 1.28 12.48
 10 -16 1 115.5 9.97
 9 -16 1 -1.23 11.16
 8 -16 1 371.41 15.68
 7 -16 1 3.63 10.14
 6 -16 1 245.31 12.21
 5 -16 1 1.86 9.3
 4 -16 1 40.47 5.8
 3 -16 1 72.72 7.26
 2 -16 1 7.23 9.7
 1 -16 1 94.09 8.14
 0 -16 1 4.4 9.7
 -1 -16 1 167.23 10.78
 -2 -16 1 11.92 11.29
 -3 -16 1 183.59 11.93
 -4 -16 1 20.65 12.78
 -3 -17 1 -1.29 12.89
 -2 -17 1 70.18 8.47
 -1 -17 1 0.28 11.22
 0 -17 1 3.08 10.69
 1 -17 1 20.55 10.8
 2 -17 1 1.73 10.15
 3 -17 1 137.41 9.92
 4 -17 1 10.61 10.54
 5 -17 1 197.44 11.72
 6 -17 1 4.97 10.45
 7 -17 1 150.97 10.91
 8 -17 1 59.22 7.65
 9 -17 1 164.21 11.8
 10 -17 1 7.73 12.36
 9 -18 1 36.54 13.52
 8 -18 1 16.71 12.44
 7 -18 1 15.15 12
 6 -18 1 84.4 8.35
 5 -18 1 17 11.87
 4 -18 1 49.34 6.58
 3 -18 1 5.13 10.98
 2 -18 1 35.09 12.22
 1 -18 1 1.39 11.18
 0 -18 1 -0.6 11.7
 -1 -18 1 18.28 12.5
 -2 -18 1 0 12.67
 0 -19 1 -8.06 13.03
 1 -19 1 -1.4 12.57
 2 -19 1 10.08 12.5
 3 -19 1 29.11 12.9
 4 -19 1 23.49 12.71
 5 -19 1 16.15 12.76
 6 -19 1 34.54 12.78
 7 -19 1 7.24 12.32
 8 -19 1 37.14 6.36
 3 -20 2 32.37 13.76
 4 -20 2 -0.64 12.9
 5 -20 2 69.86 8.81
 8 -19 2 50.31 7.79
 7 -19 2 2.39 12.49
 6 -19 2 16.53 12.58
 5 -19 2 7.98 12.21
 4 -19 2 8.2 12.52
 3 -19 2 33.84 6.34
 2 -19 2 21.53 12.56
 1 -19 2 0.22 12.11
 0 -19 2 -3.39 12.55
 -2 -18 2 6.04 12.75
 -1 -18 2 19.14 12.35
 0 -18 2 4.03 11.45
 1 -18 2 -0.04 11.35
 2 -18 2 97.36 8.97
 3 -18 2 -1.78 10.81
 4 -18 2 27.57 11.41
 5 -18 2 32.93 11.96
 6 -18 2 55.04 7.14
 7 -18 2 51.83 7.5
 8 -18 2 35.03 12.88
 9 -18 2 31.4 13.6
 10 -17 2 5.72 12.78
 9 -17 2 97.49 9.52
 8 -17 2 23.61 11.98
 7 -17 2 240.17 13.33
 6 -17 2 13.91 11.05
 5 -17 2 154.3 10.68
 4 -17 2 3.49 10.06
 3 -17 2 57.92 7.04
 2 -17 2 34.01 6.11
 1 -17 2 38.26 6.09
 0 -17 2 46.98 7.08
 -1 -17 2 7.94 11.45
 -2 -17 2 175.93 11.99
 -3 -17 2 -0.73 12.71
 -4 -17 2 76.31 9.04
 -5 -16 2 32.67 13.86
 -4 -16 2 24.81 12.68
 -3 -16 2 142.52 11.02
 -2 -16 2 6.77 10.89
 -1 -16 2 251.68 12.99
 0 -16 2 -3.86 10.19
 1 -16 2 312.07 13.6
 2 -16 2 -3.34 9.51
 3 -16 2 36.32 5.48
 4 -16 2 4.06 9.28
 5 -16 2 10.52 9.66
 6 -16 2 132.25 9.33
 7 -16 2 -1.39 10.28
 8 -16 2 103.27 8.57
 9 -16 2 -2.5 11.47
 10 -16 2 104.13 10.21
 11 -16 2 1.93 13.08
 11 -15 2 69.23 8.25
 10 -15 2 -2.78 11.63
 9 -15 2 64.01 7.59
 8 -15 2 6.51 9.95
 7 -15 2 79.33 7.75
 6 -15 2 8.71 9.4
 5 -15 2 7.28 8.72
 4 -15 2 71.87 6.61
 3 -15 2 0.04 8.48
 2 -15 2 358.94 13.72
 1 -15 2 83.33 7.7
 0 -15 2 407.98 15.37
 -1 -15 2 45.8 6.39
 -2 -15 2 314.35 13.87
 -3 -15 2 36.55 5.8
 -4 -15 2 7.01 11.27
 -5 -15 2 23.31 12.33
 -6 -15 2 4.94 12.63
 -7 -14 2 2.88 12.5
 -6 -14 2 5.66 11.61
 -5 -14 2 3.09 10.62
 -4 -14 2 46.87 6.85
 -3 -14 2 84.97 7.8
 -2 -14 2 40.37 5.6
 -1 -14 2 199.44 10.73
 0 -14 2 204.3 10.45
 1 -14 2 409.07 14.42
 2 -14 2 118.21 7.96
 3 -14 2 175.25 9.19
 4 -14 2 9.05 8.1
 5 -14 2 160.08 9.28
 6 -14 2 58.52 6.58
 7 -14 2 20.31 9.41
 8 -14 2 20.57 9.82
 9 -14 2 -0.54 10.05
 10 -14 2 252.17 13.51
 11 -14 2 9.23 11.83
 12 -14 2 49.99 7.05
 12 -13 2 35.22 13.3
 11 -13 2 16.33 11.71
 10 -13 2 209.06 12
 9 -13 2 119.57 8.88
 8 -13 2 45.23 5.58
 7 -13 2 3.68 8.19
 6 -13 2 390.95 13.75
 5 -13 2 180.65 9.31
 4 -13 2 619.76 16.24
 3 -13 2 268.26 10.89
 2 -13 2 315.09 11.85
 1 -13 2 385.48 13
 0 -13 2 3.2 7.6
 -1 -13 2 349.87 12.84
 -2 -13 2 4.65 8.12
 -3 -13 2 61.03 6.23
 -4 -13 2 46.66 5.94
 -5 -13 2 25.11 10.73
 -6 -13 2 85.3 8.31
 -7 -13 2 2.61 11.71
 -8 -13 2 66.35 8.52
 -8 -12 2 3.02 11.91
 -7 -12 2 135.65 10.38
 -6 -12 2 22.99 10.5
 -5 -12 2 135.87 9.24
 -4 -12 2 16.54 8.64
 -3 -12 2 1.43 7.62
 -2 -12 2 55.67 5.57
 -1 -12 2 83.93 6.8
 0 -12 2 986.37 19.66
 1 -12 2 22.08 4.34
 2 -12 2 1095.13 20.31
 3 -12 2 153.53 8.16
 4 -12 2 1339.75 23.07
 5 -12 2 158.92 8.63
 6 -12 2 69.32 6.09
 7 -12 2 120.82 7.83
 8 -12 2 26.22 9.05
 9 -12 2 196 10.73
 10 -12 2 0.69 9.97
 11 -12 2 45.64 6.21
 -12 12 -2 7.68 11.83
 -13 11 -2 3.46 12.97
 -12 11 -2 63.63 7.58
 -11 11 -2 -0.75 10.41
 -10 11 -2 115.76 9.13
 -9 11 -2 -0.78 8.82
 8 -11 2 1.54 8.01
 7 -11 2 145.38 8.36
 6 -11 2 0.62 6.73
 5 -11 2 338.09 11.33
 4 -11 2 150.56 7.97
 3 -11 2 1184.45 20.39
 2 -11 2 169.12 7.95
 1 -11 2 1095.06 19.11
 0 -11 2 114.23 6.84
 -1 -11 2 264.19 10.2
 -2 -11 2 52.06 5.25
 -3 -11 2 22.69 7.65
 -4 -11 2 173.64 9.24
 -5 -11 2 0.57 8.43
 -6 -11 2 197.82 10.99
 -7 -11 2 78.99 8.32
 -8 -11 2 174.36 11.42
 -9 -11 2 18.2 12.72
 -10 -10 2 82.54 9.08
 -9 -10 2 74.32 8.79
 -8 -10 2 110.5 9.12
 -7 -10 2 166.89 10.44
 -6 -10 2 338.26 13.64
 -5 -10 2 661.75 17.9
 -4 -10 2 269.99 11.09
 -3 -10 2 54.09 5.45
 -2 -10 2 43.02 4.95
 -1 -10 2 1033.79 18.2
 0 -10 2 38.02 4.16
 1 -10 2 8.8 5.36
 2 -10 2 408.84 11.27
 3 -10 2 624.16 13.92
 4 -10 2 1338.01 20.71
 5 -10 2 353.56 11.13
 6 -10 2 558.96 14.62
 -7 10 -2 349.62 12.2
 -8 10 -2 406.63 13.98
 -9 10 -2 9.88 8.41
 -10 10 -2 26.44 9.85
 -11 10 -2 19.11 10.51
 -12 10 -2 -0.29 11.49
 -13 10 -2 89.77 9.41
 -13 9 -2 5.21 12.22
 -12 9 -2 12.33 10.97
 -11 9 -2 19.02 10.37
 -10 9 -2 -1.75 9.2
 -9 9 -2 187.96 9.95
 -8 9 -2 275.59 11.25
 -7 9 -2 595.55 15.39
 -6 9 -2 1513.14 22.91
 -5 9 -2 569.42 13.54
 -4 9 -2 1374.62 19.87
 3 -9 2 296.65 9.21
 2 -9 2 829.82 14.72
 1 -9 2 14.11 4.98
 0 -9 2 171.28 7.11
 -1 -9 2 322.29 9.75
 -2 -9 2 978.92 17.42
 -3 -9 2 1170.05 19.77
 -4 -9 2 46.22 5.16
 -5 -9 2 727.11 17.53
 -6 -9 2 3.18 8.01
 -7 -9 2 813.52 20.77
 -8 -9 2 8.78 10.04
 -9 -9 2 72.61 8.09
 -10 -9 2 0.57 11.85
 -11 -8 2 36.36 13.53
 -10 -8 2 73.95 7.69
 -9 -8 2 0.76 9.98
 -8 -8 2 601.59 18.5
 -7 -8 2 183.72 10.43
 -6 -8 2 1611.44 26.4
 -5 -8 2 0.44 6.94
 -4 -8 2 2737.28 30.38
 -3 -8 2 -0.64 5.95
 -2 -8 2 2066.72 23.82
 -1 -8 2 514.56 11.33
 0 -8 2 13.75 4.58
 1 -8 2 53.25 3.92
 -2 8 -2 91.06 5.07
 -3 8 -2 2296.75 23.94
 -4 8 -2 0.58 4.78
 -5 8 -2 1637.1 22.23
 -6 8 -2 6.12 6.48
 -7 8 -2 2039.49 27.84
 -8 8 -2 382.58 13
 -9 8 -2 259.57 11.33
 -10 8 -2 18.39 9.07
 -11 8 -2 41.21 5.93
 -12 8 -2 19.4 11.59
 -13 8 -2 1.28 11.9
 -13 7 -2 11.66 12.08
 -12 7 -2 35.11 5.86
 -11 7 -2 37.93 6.2
 -10 7 -2 343 13.75
 -9 7 -2 1.13 7.68
 -8 7 -2 1317.65 23.11
 -7 7 -2 77.55 6.4
 -6 7 -2 2195.63 26.19
 -5 7 -2 354.23 10.03
 -4 7 -2 705.69 13.19
 -3 7 -2 44.2 3.79
 -2 7 -2 920.91 13.75
 -1 7 -2 711.93 12.01
 0 7 -2 54.73 4.1
 -1 -7 2 704.77 12.33
 -2 -7 2 88.51 5.1
 -3 -7 2 4702.47 35.49
 -4 -7 2 364.11 11
 -5 -7 2 2455.42 29.17
 -6 -7 2 160.73 8.68
 -7 -7 2 812.35 19.18
 -8 -7 2 601.96 17.6
 -9 -7 2 22.66 10.06
 -10 -7 2 11.96 10.89
 -11 -7 2 3.23 11.68
 -12 -6 2 31.02 13.33
 -11 -6 2 37 12.42
 -10 -6 2 12.87 10.23
 -9 -6 2 42.89 6.15
 -8 -6 2 49.41 5.99
 -7 -6 2 324.11 11.78
 -6 -6 2 847.3 17.64
 -5 -6 2 737.83 15.2
 -4 -6 2 2486.91 26.14
 -3 -6 2 2730.12 25.73
 -2 -6 2 2574.24 23.25
 1 6 -2 3539.23 25.79
 0 6 -2 2328.01 20.35
 -1 6 -2 2895.84 22.37
 -2 6 -2 2201.59 20.06
 -3 6 -2 198.46 6.59
 -4 6 -2 301.28 8.36
 -5 6 -2 291.86 8.76
 -6 6 -2 159.75 7.42
 -7 6 -2 1614.9 23.19
 -8 6 -2 35.07 4.89
 -9 6 -2 484.84 14.78
 -10 6 -2 66.02 6.73
 -11 6 -2 533.34 17.89
 -12 6 -2 3.26 10.77
 -13 6 -2 13.27 12.44
 -13 5 -2 12.12 12.12
 -12 5 -2 123.23 9.84
 -11 5 -2 59.63 7.02
 -10 5 -2 471.82 15.73
 -9 5 -2 1022.88 21.57
 -8 5 -2 219.84 9.72
 -7 5 -2 898.67 17.26
 -6 5 -2 2410.56 26.56
 -5 5 -2 1084.59 16.37
 -4 5 -2 2.75 3.96
 -3 5 -2 2284.61 20.38
 -2 5 -2 132.89 5.1
 -1 5 -2 3259.48 22.03
 0 5 -2 956.14 12.24
 1 5 -2 801.94 11.41
 2 5 -2 1146.53 14.38
 -3 -5 2 1432.3 17.41
 -4 -5 2 3654.35 29.82
 -5 -5 2 26.71 3.76
 -6 -5 2 429.21 12.33
 -7 -5 2 144.12 8.1
 -8 -5 2 334.92 12.3
 -9 -5 2 219.64 10.86
 -10 -5 2 -4.03 9.83
 -11 -5 2 56.11 6.81
 -12 -5 2 54.04 7.44
 -13 -4 2 -1.09 12.82
 -12 -4 2 266.05 14.26
 -11 -4 2 1.6 10.09
 -10 -4 2 530.71 17
 -9 -4 2 11.05 8.23
 -8 -4 2 185.12 9.1
 -7 -4 2 377.96 11.73
 -6 -4 2 2.97 5.73
 -5 -4 2 561.87 12.1
 4 4 -2 -2.63 4.59
 3 4 -2 6325.06 33.91
 2 4 -2 857.16 11.64
 1 4 -2 3040 20.19
 0 4 -2 18605.02 126.15
 -1 4 -2 9423.43 34.61
 -2 4 -2 2966.6 20.68
 -3 4 -2 494.41 9.27
 -4 4 -2 1245.54 15.84
 -5 4 -2 33.25 3.57
 -6 4 -2 2347.7 25.73
 -7 4 -2 76.17 5.83
 -8 4 -2 694.71 16.48
 -9 4 -2 35.82 5.57
 -10 4 -2 500.25 16.28
 -11 4 -2 281.55 13.33
 -12 4 -2 75.81 8.13
 -13 4 -2 7.54 12.45
 -13 3 -2 162.08 11.64
 -12 3 -2 -7.57 11.33
 -11 3 -2 276.35 13.05
 -10 3 -2 146.08 9.25
 -9 3 -2 1052.62 21.77
 -8 3 -2 27.23 4.58
 -7 3 -2 264.95 9.7
 -6 3 -2 80.16 5.47
 -5 3 -2 907.43 14.73
 -4 3 -2 2834.23 23.61
 -3 3 -2 285.69 7.11
 -2 3 -2 2743.34 19.06
 -1 3 -2 2273.46 16.08
 0 3 -2 38193 166.13
 1 3 -2 3078.94 18.62
 2 3 -2 7429.32 31.09
 3 3 -2 851.24 11.8
 4 3 -2 3683.68 26.79
 5 3 -2 2761.29 25.57
 -6 -3 2 225.46 8.24
 -7 -3 2 95.54 6.26
 -8 -3 2 112.96 7.21
 -9 -3 2 745.09 18.41
 -10 -3 2 277.58 12.72
 -11 -3 2 267.84 12.74
 -12 -3 2 5.57 11.08
 -13 -3 2 124.2 10.56
 -13 -2 2 38.19 12.92
 -12 -2 2 139.33 9.85
 -11 -2 2 313.47 13.77
 -10 -2 2 383.44 13.98
 -9 -2 2 19.36 7.96
 -8 -2 2 770.05 16.89
 -7 -2 2 160.68 7.47
 6 2 -2 2528.63 25.78
 5 2 -2 32.88 3.72
 4 2 -2 1225.66 14.9
 3 2 -2 1617.22 15.41
 2 2 -2 2085.13 15.67
 1 2 -2 16.13 2.72
 0 2 -2 5801.12 22.64
 -1 2 -2 48.68 3.47
 -2 2 -2 125.34 4.7
 -3 2 -2 2033.92 17.81
 -4 2 -2 128.72 5.42
 -5 2 -2 1076.19 15.92
 -6 2 -2 126.45 6.48
 -7 2 -2 249.44 9.58
 -8 2 -2 193.12 9.28
 -9 2 -2 14.17 8.27
 -10 2 -2 438.88 15.44
 -11 2 -2 -0.36 9.88
 -12 2 -2 180.21 11.79
 -13 2 -2 9.75 12.62
 -13 1 -2 87.41 9.75
 -12 1 -2 42.18 6.77
 -11 1 -2 55.22 6.54
 -10 1 -2 2.77 8.87
 -9 1 -2 385.47 13.54
 -8 1 -2 71.59 6.27
 -7 1 -2 16.01 6.56
 -6 1 -2 44.72 4.56
 -5 1 -2 103.7 5.5
 -4 1 -2 3782.26 27.63
 -3 1 -2 5505.19 29.74
 -2 1 -2 341.21 7.11
 -1 1 -2 3563.51 18.76
 0 1 -2 2993.92 15.69
 1 1 -2 10085.24 75.73
 2 1 -2 201.15 5.33
 3 1 -2 338.89 7.05
 4 1 -2 589.61 9.95
 5 1 -2 391.75 9.11
 6 1 -2 3183.39 28.18
 7 1 -2 83.92 5.78
 -8 -1 2 605.76 14.65
 -9 -1 2 622.76 15.96
 -10 -1 2 1226.64 24.05
 -11 -1 2 6.97 9.42
 -12 -1 2 183.98 10.96
 -13 -1 2 -5.92 11.78
 -14 0 2 62.72 7.95
 -13 0 2 8.06 11.32
 -12 0 2 52.32 6.23
 -11 0 2 821.18 20.79
 -10 0 2 2.21 8.07
 -9 0 2 1134.15 21.15
 8 0 -2 44.99 5.13
 7 0 -2 3495.23 31.59
 6 0 -2 420.17 10.13
 5 0 -2 405.55 9.14
 4 0 -2 248.1 6.65
 3 0 -2 2449.28 17.42
 2 0 -2 5293.41 22.44
 1 0 -2 568.29 7.28
 0 0 -2 15683.39 95.93
 -1 0 -2 2542.6 16.35
 -2 0 -2 8670.53 34.07
 -3 0 -2 2764.07 21.78
 -4 0 -2 5898.59 35.27
 -5 0 -2 1505.97 19.87
 -6 0 -2 711.16 15.01
 -7 0 -2 554.37 14.3
 -8 0 -2 3.88 7.54
 -9 0 -2 276.9 11.99
 -10 0 -2 3.23 9.23
 -11 0 -2 57.81 6.92
 -12 0 -2 25.29 12.54
 -12 -1 -2 51.48 7.91
 -11 -1 -2 5.41 10.59
 -10 -1 -2 4.62 9.33
 -9 -1 -2 80.83 7.09
 -8 -1 -2 692.42 17.92
 -7 -1 -2 1315.41 22.35
 -6 -1 -2 1.96 6.09
 -5 -1 -2 2385.66 25.33
 -4 -1 -2 1052.63 15.52
 -3 -1 -2 4935.38 30.12
 -2 -1 -2 36.26 3.28
 -1 -1 -2 282.12 6.28
 0 -1 -2 3452.11 18.19
 1 -1 -2 48.66 3.19
 2 -1 -2 10089.29 83.07
 3 -1 -2 100.07 4.61
 4 -1 -2 1495.14 15.31
 5 -1 -2 1690.15 18.08
 6 -1 -2 4490.95 32.23
 7 -1 -2 196.72 7.73
 8 -1 -2 2045.68 25.87
 9 -1 -2 18.95 7.35
 -10 1 2 1068.71 21.73
 -11 1 2 352.54 13.76
 -12 1 2 6.91 9.96
 -13 1 2 21.14 11.35
 -14 1 2 -2.63 12.74
 -14 2 2 39.27 6.09
 -13 2 2 21.44 11.2
 -12 2 2 250.95 12.24
 -11 2 2 129.8 8.7
 10 -2 -2 228.38 10.31
 9 -2 -2 543.26 14.36
 8 -2 -2 923.53 17.56
 7 -2 -2 3776.57 32.62
 6 -2 -2 177.79 6.88
 5 -2 -2 3922.75 27.18
 4 -2 -2 218.07 6.38
 3 -2 -2 8700.45 33.21
 2 -2 -2 4808.02 23.08
 1 -2 -2 3581.24 19.35
 0 -2 -2 116.7 4.57
 -1 -2 -2 3039.25 20.3
 -2 -2 -2 2381.65 19.85
 -3 -2 -2 1242.31 15.97
 -4 -2 -2 1990.99 22.09
 -5 -2 -2 320.65 9.86
 -6 -2 -2 1049.41 18.97
 -7 -2 -2 57.3 6.26
 -8 -2 -2 940.37 20.54
 -9 -2 -2 1.23 8.76
 -10 -2 -2 27.45 10.48
 -11 -2 -2 52.61 6.66
 -12 -2 -2 -2.2 12.72
 -11 -3 -2 108 9.66
 -10 -3 -2 4.98 10.26
 -9 -3 -2 120.49 8.79
 -8 -3 -2 8.07 8.41
 -7 -3 -2 1796.8 27.33
 -6 -3 -2 761.71 16.93
 -5 -3 -2 1491.6 21.66
 -4 -3 -2 331.68 9.63
 -3 -3 -2 1110.43 15.8
 -2 -3 -2 7211.11 36.66
 -1 -3 -2 10.33 3.5
 0 -3 -2 414.59 7.79
 1 -3 -2 525.56 8.46
 2 -3 -2 3041.08 19.68
 3 -3 -2 3125.93 21.08
 4 -3 -2 3740.42 24.77
 5 -3 -2 2797.57 23.37
 6 -3 -2 2985.48 26.38
 7 -3 -2 3155.02 29.45
 8 -3 -2 158.11 7.82
 9 -3 -2 412.14 12.44
 10 -3 -2 89.05 6.78
 11 -3 -2 177.55 9.81
 -12 3 2 147.21 9.47
 -13 3 2 18.96 11.39
 -14 3 2 74.98 8.21
 -14 4 2 1.34 11.85
 -13 4 2 434.76 16.74
 12 -4 -2 30.2 10.15
 11 -4 -2 28.9 4.76
 10 -4 -2 26.26 4.34
 9 -4 -2 637.69 15.42
 8 -4 -2 704.63 15.27
 7 -4 -2 391.73 10.7
 6 -4 -2 3144.77 27.61
 5 -4 -2 1218.97 16.07
 4 -4 -2 3896.21 26.34
 3 -4 -2 9254.88 38.15
 2 -4 -2 626.94 9.84
 1 -4 -2 774.77 10.92
 0 -4 -2 1827.67 17.23
 -1 -4 -2 3371.93 24.73
 -2 -4 -2 64.68 4.45
 -3 -4 -2 371.17 9.75
 -4 -4 -2 89.65 5.54
 -5 -4 -2 2188.2 27.38
 -6 -4 -2 278.05 11.1
 -7 -4 -2 293.75 12.28
 -8 -4 -2 166.64 9.77
 -9 -4 -2 163.6 10.25
 -10 -4 -2 44.67 6.39
 -11 -4 -2 5.17 12.53
 -11 -5 -2 57.71 8.42
 -10 -5 -2 130.89 10.5
 -9 -5 -2 3.14 10.36
 -8 -5 -2 235.82 11.63
 -7 -5 -2 398.01 13.98
 -6 -5 -2 563.14 15.63
 -5 -5 -2 12.86 7.03
 -4 -5 -2 334.2 10.64
 -3 -5 -2 47.84 4.3
 -2 -5 -2 1862.16 21.35
 -1 -5 -2 1669.95 18.87
 0 -5 -2 499.71 9.88
 1 -5 -2 3376.53 24.3
 2 -5 -2 2066.29 18.99
 3 -5 -2 9110.09 40.27
 4 -5 -2 2743.87 23.19
 5 -5 -2 1483.38 18.05
 6 -5 -2 99.61 5.66
 7 -5 -2 1853.86 23.56
 8 -5 -2 179.99 8.13
 9 -5 -2 22.41 7.61
 10 -5 -2 183.29 9.23
 11 -5 -2 3.9 8.26
 12 -5 -2 371.26 14.55
 13 -5 -2 1.7 10.69
 -14 5 2 93.77 8.85
 14 -6 -2 66.86 7.91
 13 -6 -2 579.72 19.28
 12 -6 -2 29.89 10.1
 11 -6 -2 118.72 8.2
 10 -6 -2 34.33 4.84
 9 -6 -2 2574.08 31.92
 8 -6 -2 123.67 7.09
 7 -6 -2 168.04 7.7
 6 -6 -2 448.92 11.22
 5 -6 -2 942.56 14.98
 4 -6 -2 3104.49 25.98
 3 -6 -2 1730.09 19.11
 2 -6 -2 2059.12 20.59
 1 -6 -2 580.47 11
 0 -6 -2 2905.64 25.21
 -1 -6 -2 1261.34 17.39
 -2 -6 -2 315.74 9.48
 -3 -6 -2 39.33 4.27
 -4 -6 -2 22.24 4.05
 -5 -6 -2 840.94 18.35
 -6 -6 -2 26.72 4.95
 -7 -6 -2 276.73 12.41
 -8 -6 -2 2.11 9.65
 -9 -6 -2 398.69 16.49
 -10 -6 -2 21.22 12.89
 -10 -7 -2 207.83 13.51
 -9 -7 -2 18.96 12.34
 -8 -7 -2 108.82 8.94
 -7 -7 -2 7.76 9.19
 -6 -7 -2 146.93 8.91
 -5 -7 -2 116.93 7.75
 -4 -7 -2 2.76 6.96
 -3 -7 -2 257.08 9.71
 -2 -7 -2 42.77 4.44
 -1 -7 -2 2524.72 26.5
 0 -7 -2 562.46 12.18
 1 -7 -2 2967.95 26.54
 2 -7 -2 508.05 10.97
 3 -7 -2 504.42 10.97
 4 -7 -2 1445.33 18.93
 5 -7 -2 2.4 4.84
 6 -7 -2 667.96 13.81
 7 -7 -2 -1.87 6.02
 8 -7 -2 156.89 7.94
 9 -7 -2 1417.25 23.77
 10 -7 -2 468.16 14.82
 11 -7 -2 366.11 13.9
 12 -7 -2 157.04 9.85
 13 -7 -2 368.43 15.57
 14 -7 -2 17.24 12.69
 14 -8 -2 162.09 11.46
 13 -8 -2 28.45 11.55
 12 -8 -2 362.4 14.84
 11 -8 -2 3.26 8.87
 10 -8 -2 1057.93 22.25
 9 -8 -2 -0.43 7.58
 8 -8 -2 -0.07 6.72
 7 -8 -2 101.98 6.5
 6 -8 -2 679.03 14.75
 5 -8 -2 620.29 13.47
 4 -8 -2 272.17 8.97
 3 -8 -2 638.92 13.1
 2 -8 -2 510.17 11.74
 1 -8 -2 1799.29 22.17
 0 -8 -2 1924.11 24.26
 -1 -8 -2 579.26 13.84
 -2 -8 -2 320.87 10.82
 -3 -8 -2 448.6 13.18
 -4 -8 -2 248.13 10.51
 -5 -8 -2 18.94 8.66
 -6 -8 -2 16.8 9.03
 -7 -8 -2 -3 9.68
 -8 -8 -2 25.8 11.68
 -9 -8 -2 87.48 9.55
 -9 -9 -2 13.52 13.23
 -8 -9 -2 6.06 11.52
 -7 -9 -2 6.95 10.68
 -6 -9 -2 14.22 9.66
 -5 -9 -2 188.18 10.36
 -4 -9 -2 235.74 11.02
 -3 -9 -2 96.53 7.28
 -2 -9 -2 876.92 18.38
 -1 -9 -2 201.81 9
 0 -9 -2 1818.7 24.49
 1 -9 -2 251.79 9.62
 2 -9 -2 1784.74 23.46
 3 -9 -2 46.9 4.57
 4 -9 -2 452.78 11.79
 5 -9 -2 488.96 12.64
 6 -9 -2 26.02 4.18
 7 -9 -2 202.92 9.22
 8 -9 -2 2.48 7.05
 9 -9 -2 680.57 17.26
 10 -9 -2 -4.16 8.99
 11 -9 -2 938.06 22.58
 12 -9 -2 17.07 10.35
 13 -9 -2 363.39 15.89
 14 -9 -2 4.51 12.31
 14 -10 -2 65.28 8
 13 -10 -2 34.26 12.61
 12 -10 -2 140.39 9.93
 11 -10 -2 204.22 11.07
 10 -10 -2 882.62 21.18
 9 -10 -2 5.59 8.07
 8 -10 -2 1461.23 25.05
 7 -10 -2 169.19 8.86
 6 -10 -2 1723.58 25.18
 5 -10 -2 11.31 6.47
 4 -10 -2 13.79 6.39
 3 -10 -2 6.19 6.01
 2 -10 -2 57.9 5.17
 1 -10 -2 1773.4 25.28
 0 -10 -2 10.19 6.97
 -1 -10 -2 890.81 18.65
 -2 -10 -2 5.55 7.73
 -3 -10 -2 1066.01 22.55
 -4 -10 -2 42.84 6.09
 -5 -10 -2 183.48 11.03
 -6 -10 -2 1.36 10.1
 -7 -10 -2 37.07 5.84
 -8 -10 -2 20.04 12.84
 -7 -11 -2 0.78 12.18
 -6 -11 -2 87.76 8.32
 -5 -11 -2 11.94 10.09
 -4 -11 -2 432.3 15.89
 -3 -11 -2 31.89 6.14
 -2 -11 -2 584.98 16.83
 -1 -11 -2 152.14 8.76
 0 -11 -2 55.91 5.72
 1 -11 -2 713.86 16.93
 2 -11 -2 18.21 7.35
 3 -11 -2 71.53 5.81
 4 -11 -2 257.17 10.34
 5 -11 -2 589.32 15.09
 6 -11 -2 399.86 13.01
 7 -11 -2 1073.9 21.34
 8 -11 -2 900.28 20.41
 9 -11 -2 528.33 16.19
 10 -11 -2 156.4 9.8
 11 -11 -2 187.14 10.89
 12 -11 -2 165.57 10.82
 13 -11 -2 3.2 11.75
 14 -11 -2 40.98 13.7
 13 -12 -2 45.44 6.91
 12 -12 -2 9.41 11.32
 11 -12 -2 365.37 15.09
 10 -12 -2 77.97 7.46
 9 -12 -2 450.24 15.64
 8 -12 -2 100.78 8.09
 7 -12 -2 806.35 19.5
 6 -12 -2 437.63 13.95
 5 -12 -2 134.8 8.04
 4 -12 -2 248.77 10.56
 3 -12 -2 52.3 5.74
 2 -12 -2 1107.45 21.8
 1 -12 -2 19.32 8.21
 0 -12 -2 71.61 6.2
 -1 -12 -2 16.88 8.54
 -2 -12 -2 481.64 16.22
 -3 -12 -2 313.07 13.79
 -4 -12 -2 97.4 8.54
 -5 -12 -2 20.53 11.68
 -6 -12 -2 27.79 12.89
 -6 -13 -2 24.86 13.58
 -5 -13 -2 67.62 7.97
 -4 -13 -2 9.9 11.27
 -3 -13 -2 140.6 10.5
 -2 -13 -2 22.22 9.89
 -1 -13 -2 176.15 10.42
 0 -13 -2 16.36 8.73
 1 -13 -2 -0.12 8.17
 2 -13 -2 97.75 7.57
 3 -13 -2 186.97 9.67
 4 -13 -2 609.03 16.78
 5 -13 -2 60.57 6.53
 6 -13 -2 431.65 14.44
 7 -13 -2 7.62 8.73
 8 -13 -2 1223.93 25.15
 9 -13 -2 5.79 9.44
 10 -13 -2 233.58 12.18
 11 -13 -2 5.18 10.73
 12 -13 -2 12.33 11.68
 13 -13 -2 69.05 8.42
 12 -14 -2 44.48 6.84
 11 -14 -2 18 11.67
 10 -14 -2 23.86 11.17
 9 -14 -2 134.19 9.55
 8 -14 -2 95.55 8.76
 7 -14 -2 343.3 14.12
 6 -14 -2 1.84 8.81
 5 -14 -2 609.46 17.84
 4 -14 -2 84.37 7.52
 3 -14 -2 203.15 10.5
 2 -14 -2 13.11 8.96
 1 -14 -2 14.56 9.1
 0 -14 -2 26.97 9.91
 -1 -14 -2 5.38 10
 -2 -14 -2 164.28 10.97
 -3 -14 -2 2.9 10.99
 -4 -14 -2 65.44 7.82
 -5 -14 -2 -0.66 12.78
 -4 -15 -2 1.17 12.99
 -3 -15 -2 34.56 12.58
 -2 -15 -2 11.83 11.19
 -1 -15 -2 31.84 5.44
 0 -15 -2 70.63 7.63
 1 -15 -2 1.64 9.66
 2 -15 -2 126.45 9.21
 3 -15 -2 -0.33 9.59
 4 -15 -2 445.04 15.96
 5 -15 -2 29.94 5.78
 6 -15 -2 221.27 11.67
 7 -15 -2 14.72 10.22
 8 -15 -2 32.16 10.82
 9 -15 -2 72.4 7.89
 10 -15 -2 1.16 11.02
 11 -15 -2 45.52 6.52
 12 -15 -2 6.79 12.89
 11 -16 -2 16.45 12.56
 10 -16 -2 22.25 12.58
 9 -16 -2 6.85 11.19
 8 -16 -2 125.3 9.9
 7 -16 -2 14.64 10.65
 6 -16 -2 175.12 10.71
 5 -16 -2 138.65 10.19
 4 -16 -2 262.29 13.33
 3 -16 -2 147.08 10.45
 2 -16 -2 49.97 6.47
 1 -16 -2 56.73 7.24
 0 -16 -2 17.22 11.45
 -1 -16 -2 36.2 12.71
 -2 -16 -2 -2.32 12.44
 -1 -17 -2 16.14 13.03
 0 -17 -2 40.94 13.71
 1 -17 -2 120.18 10.42
 2 -17 -2 20.11 12.08
 3 -17 -2 112.71 9.88
 4 -17 -2 8.94 11.31
 5 -17 -2 147.82 10.89
 6 -17 -2 -0.57 11.04
 7 -17 -2 28.49 12.12
 8 -17 -2 4.04 11.51
 9 -17 -2 7.61 12.03
 10 -17 -2 41.01 13.78
 9 -18 -2 22.95 13.56
 8 -18 -2 3.44 12.17
 7 -18 -2 7.54 12.07
 6 -18 -2 2.54 12.23
 5 -18 -2 0.14 11.91
 4 -18 -2 61.36 7.59
 3 -18 -2 1.23 11.88
 2 -18 -2 51.2 7.35
 1 -18 -2 -2.28 13.72
 4 -19 -2 19.19 13.12
 5 -19 -2 8.43 12.95
 6 -19 -2 26.44 13.57
 3 -18 -3 2.12 12.54
 4 -18 -3 26.05 13.37
 5 -18 -3 3.52 12.25
 6 -18 -3 11.6 12.54
 7 -18 -3 28.42 13.33
 8 -18 -3 -0.39 12.81
 10 -17 -3 97.43 9.46
 9 -17 -3 22.66 12.71
 8 -17 -3 7.72 12.08
 7 -17 -3 12.59 12.13
 6 -17 -3 -2.56 11.73
 5 -17 -3 74.16 8.09
 4 -17 -3 33.21 12.46
 3 -17 -3 99.62 9.8
 2 -17 -3 25.98 12.94
 1 -17 -3 92.87 9.87
 0 -17 -3 57.22 8.79
 -1 -16 -3 28.56 13.04
 0 -16 -3 34.18 13
 1 -16 -3 189.84 12.48
 2 -16 -3 42.71 6.28
 3 -16 -3 99.7 9.13
 4 -16 -3 108.23 9.6
 5 -16 -3 84.29 8.51
 6 -16 -3 68.06 7.27
 7 -16 -3 3.33 10.75
 8 -16 -3 48.13 6.76
 9 -16 -3 1.28 11.49
 10 -16 -3 43.3 7.09
 11 -16 -3 19.75 13.24
 12 -15 -3 -1.77 13.62
 11 -15 -3 21.97 12.64
 10 -15 -3 17.17 11.79
 9 -15 -3 63.49 7.55
 8 -15 -3 9.1 10.5
 7 -15 -3 16.43 10.32
 6 -15 -3 46.13 6.25
 5 -15 -3 39.18 5.64
 4 -15 -3 373.86 15.48
 3 -15 -3 -0.91 10.04
 2 -15 -3 227.44 12.17
 1 -15 -3 -7.5 10.86
 0 -15 -3 181.64 11.48
 -1 -15 -3 -4.71 11.7
 -2 -15 -3 1.19 11.71
 -3 -15 -3 -0.56 12.69
 -4 -14 -3 26.82 13.33
 -3 -14 -3 1.57 11.44
 -2 -14 -3 16.81 11.34
 -1 -14 -3 23.96 11.22
 0 -14 -3 3.6 10.02
 1 -14 -3 81.77 7.53
 2 -14 -3 -0.99 9.53
 3 -14 -3 376.69 14.74
 4 -14 -3 2.96 9.38
 5 -14 -3 640.42 18.65
 6 -14 -3 7.8 9.17
 7 -14 -3 223.17 11.57
 8 -14 -3 16.43 10.11
 9 -14 -3 8.17 10.26
 10 -14 -3 114.79 9.56
 11 -14 -3 -1.11 11.42
 12 -14 -3 109.2 9.86
 13 -13 -3 131.23 11.02
 12 -13 -3 6.21 11.94
 11 -13 -3 1.5 10.71
 10 -13 -3 25.38 10.63
 9 -13 -3 4.74 9.37
 8 -13 -3 437.11 15.51
 7 -13 -3 108.54 8
 6 -13 -3 301.93 12.53
 5 -13 -3 325.29 12.88
 4 -13 -3 683.93 18.72
 3 -13 -3 203.55 10.37
 2 -13 -3 40.81 5.44
 1 -13 -3 26.98 9.44
 0 -13 -3 1.23 9.23
 -1 -13 -3 174.71 10.61
 -2 -13 -3 10.7 10.34
 -3 -13 -3 14.17 11.15
 -4 -13 -3 11.6 11.99
 -5 -13 -3 33.14 13.7
 -6 -12 -3 2.02 12.87
 -5 -12 -3 44.24 7.11
 -4 -12 -3 22.64 11.28
 -3 -12 -3 116.33 8.97
 -2 -12 -3 115.83 9.07
 -1 -12 -3 152.09 9.7
 0 -12 -3 25.68 8.81
 1 -12 -3 2.48 8
 2 -12 -3 830.5 19.39
 3 -12 -3 3.1 7.79
 4 -12 -3 520.39 15.73
 5 -12 -3 107.57 7.78
 6 -12 -3 447.28 14.46
 7 -12 -3 334.29 12.96
 8 -12 -3 139.89 8.98
 9 -12 -3 164.13 10.16
 10 -12 -3 9.37 9.75
 11 -12 -3 68.76 7.28
 12 -12 -3 20.6 11.64
 13 -12 -3 27.58 12.83
 14 -11 -3 13.89 12.96
 13 -11 -3 11.83 12.03
 12 -11 -3 158.09 10.74
 11 -11 -3 137.82 9.75
 10 -11 -3 22.17 9.85
 9 -11 -3 621.44 17.97
 8 -11 -3 261.51 11.84
 7 -11 -3 784.76 18.49
 6 -11 -3 1.53 7.53
 5 -11 -3 1029.82 20.81
 4 -11 -3 356.4 12.41
 3 -11 -3 675.53 16.59
 2 -11 -3 5.83 7.32
 1 -11 -3 17.55 7.73
 0 -11 -3 12.16 7.8
 -1 -11 -3 1.17 8.03
 -2 -11 -3 342.38 13.65
 -3 -11 -3 -2.02 9.74
 -4 -11 -3 230.55 12.31
 -5 -11 -3 5.52 10.96
 -6 -11 -3 127.14 10.48
 -7 -10 -3 70.51 8.26
 -6 -10 -3 2.44 11
 -5 -10 -3 121.84 9.19
 -4 -10 -3 118.82 9.06
 -3 -10 -3 636.06 18.5
 -2 -10 -3 4.49 8.25
 -1 -10 -3 309.85 11.84
 0 -10 -3 12.92 7.07
 1 -10 -3 206.35 9.36
 2 -10 -3 674.81 15.96
 3 -10 -3 37.53 4.94
 4 -10 -3 630.79 15.26
 5 -10 -3 104.32 6.84
 6 -10 -3 1262.06 22.24
 7 -10 -3 17.41 7.87
 8 -10 -3 1669.28 26.98
 9 -10 -3 48.4 5.96
 10 -10 -3 862.97 21.18
 11 -10 -3 25.77 10.44
 12 -10 -3 66.01 7.09
 13 -10 -3 57.71 7.34
 14 -10 -3 3.48 12.52
 14 -9 -3 -7.48 12.49
 13 -9 -3 163.26 11.15
 12 -9 -3 -3.38 10.47
 11 -9 -3 840.99 21.34
 10 -9 -3 91.88 7.35
 9 -9 -3 1109.78 22.26
 8 -9 -3 417.2 13.64
 7 -9 -3 2648.68 32.33
 6 -9 -3 735.81 16.29
 5 -9 -3 150.04 7.76
 4 -9 -3 30.52 4.08
 3 -9 -3 4.26 5.94
 2 -9 -3 2494.27 29.23
 1 -9 -3 59.28 5.85
 0 -9 -3 1599.82 24.48
 -1 -9 -3 263.12 10.53
 -2 -9 -3 1295.43 23.41
 -3 -9 -3 508.52 15.65
 -4 -9 -3 287.31 13.06
 -5 -9 -3 66.92 6.84
 -6 -9 -3 108.05 8.98
 -7 -9 -3 16.53 11.55
 -8 -9 -3 -0.29 12.2
 -8 -8 -3 3.91 11.96
 -7 -8 -3 14.6 10.88
 -6 -8 -3 103.13 8.2
 -5 -8 -3 -0.32 8.81
 -4 -8 -3 859.28 20.03
 -3 -8 -3 432.9 13.93
 -2 -8 -3 607.02 15.28
 -1 -8 -3 307.46 10.73
 0 -8 -3 1213.91 19.98
 1 -8 -3 2256.44 26.25
 2 -8 -3 344.92 10.32
 3 -8 -3 19.78 3.37
 4 -8 -3 12.31 5.7
 5 -8 -3 1073.92 18.24
 6 -8 -3 207.72 8.83
 7 -8 -3 1216.71 20.95
 8 -8 -3 159.91 8.37
 9 -8 -3 1067.74 21.51
 10 -8 -3 721.18 18.4
 11 -8 -3 38.97 5.49
 12 -8 -3 231.71 12.17
 13 -8 -3 60.55 7.14
 14 -8 -3 114.46 9.8
 14 -7 -3 70.24 8.22
 13 -7 -3 135.1 10.24
 12 -7 -3 218.27 11.54
 11 -7 -3 584.3 17.51
 10 -7 -3 750.83 18.86
 9 -7 -3 175.28 8.96
 8 -7 -3 15.96 6.98
 7 -7 -3 75.8 5.77
 6 -7 -3 1672.09 22.48
 5 -7 -3 149.15 7.17
 4 -7 -3 855.19 15.21
 3 -7 -3 600.91 12.57
 2 -7 -3 704.24 13.59
 1 -7 -3 2435.46 25.85
 0 -7 -3 542.15 12.68
 -1 -7 -3 1682.58 22.99
 -2 -7 -3 217.83 9.12
 -3 -7 -3 1036.51 20.05
 -4 -7 -3 10.84 7.61
 -5 -7 -3 215.82 10.58
 -6 -7 -3 40.63 5.56
 -7 -7 -3 24.07 10.48
 -8 -7 -3 22.88 11.55
 -9 -7 -3 -7.42 12.82
 -10 -6 -3 24.06 13.47
 -9 -6 -3 133.43 11.21
 -8 -6 -3 -2.31 10.53
 -7 -6 -3 46.92 5.95
 -6 -6 -3 11.47 8.62
 -5 -6 -3 288.15 11.5
 -4 -6 -3 170.35 8.85
 -3 -6 -3 -0.21 6.52
 -2 -6 -3 544.83 13.07
 -1 -6 -3 222.7 8.25
 0 -6 -3 4098.83 32.5
 1 -6 -3 55.44 4.36
 2 -6 -3 447.72 10.3
 3 -6 -3 64.13 4.55
 4 -6 -3 2992.58 27.13
 5 -6 -3 3195.91 28.91
 6 -6 -3 32.79 4.15
 7 -6 -3 698.15 15.17
 8 -6 -3 68.03 5.79
 9 -6 -3 1641.11 25.48
 10 -6 -3 33.36 5.16
 11 -6 -3 662.73 18.31
 12 -6 -3 8.98 9.47
 13 -6 -3 771.91 22.1
 14 -6 -3 66.5 8.04
 14 -5 -3 287.95 14.58
 13 -5 -3 27.85 11.6
 12 -5 -3 365.79 14.5
 11 -5 -3 4.87 8.47
 10 -5 -3 903.39 19.99
 9 -5 -3 297.78 11.17
 8 -5 -3 344.05 11.04
 7 -5 -3 814.66 15.61
 6 -5 -3 661.77 13.34
 5 -5 -3 1851.18 21.23
 4 -5 -3 3.74 4.48
 3 -5 -3 3081.31 25.4
 2 -5 -3 2.51 3.96
 1 -5 -3 1393.85 17.26
 0 -5 -3 627.55 12.15
 -1 -5 -3 479.87 11.15
 -2 -5 -3 386.72 10.51
 -3 -5 -3 136.79 6.92
 -4 -5 -3 99.5 6.82
 -5 -5 -3 24.22 4.13
 -6 -5 -3 206.98 10.23
 -7 -5 -3 35.65 5.35
 -8 -5 -3 146.32 9.96
 -9 -5 -3 63.43 8
 -10 -5 -3 40.14 13.44
 -10 -4 -3 163.19 11.82
 -9 -4 -3 130.39 9.86
 -8 -4 -3 65.02 6.61
 -7 -4 -3 44.3 5.8
 -6 -4 -3 132.76 8.3
 -5 -4 -3 1000.92 19.84
 -4 -4 -3 -3.37 6
 -3 -4 -3 256.54 8.74
 -2 -4 -3 3.29 4.52
 -1 -4 -3 3715.28 28.54
 0 -4 -3 1926.04 19.45
 1 -4 -3 2422.58 21.21
 2 -4 -3 2512.96 21.56
 3 -4 -3 4794.57 29.96
 4 -4 -3 6532.32 36.17
 5 -4 -3 50.19 4.23
 6 -4 -3 644.29 12.91
 7 -4 -3 381.37 10.84
 8 -4 -3 448.9 12.4
 9 -4 -3 1753.9 26.06
 10 -4 -3 150.92 8.69
 11 -4 -3 275.51 11.96
 12 -4 -3 81.79 7.36
 13 -4 -3 614.4 19.52
 14 -4 -3 -0.2 11.87
 14 -3 -3 109.47 9.65
 13 -3 -3 224.45 12.29
 12 -3 -3 156.81 9.83
 11 -3 -3 72.98 6.65
 10 -3 -3 -1.82 7.63
 9 -3 -3 1331.64 22.54
 8 -3 -3 25.81 4.64
 7 -3 -3 1190.85 18.54
 6 -3 -3 1550.12 19.69
 5 -3 -3 3203.11 26.14
 4 -3 -3 5353.62 31.47
 3 -3 -3 2278.43 19.67
 2 -3 -3 7242.22 34.17
 1 -3 -3 437.36 8.64
 0 -3 -3 908.3 12.63
 -1 -3 -3 708.81 12.01
 -2 -3 -3 740.12 12.94
 -3 -3 -3 550.65 12.02
 -4 -3 -3 54.13 4.72
 -5 -3 -3 1074.64 19.84
 -6 -3 -3 137.14 8.01
 -7 -3 -3 807.61 19.62
 -8 -3 -3 8.4 8.9
 -9 -3 -3 160.21 10.27
 -10 -3 -3 -0.43 11.19
 -11 -3 -3 85.06 9.14
 -11 -2 -3 57.59 7.84
 -10 -2 -3 75.14 8.07
 -9 -2 -3 3.15 9.43
 -8 -2 -3 369.63 13.57
 -7 -2 -3 372.6 13.2
 -6 -2 -3 1399.57 22.96
 -5 -2 -3 112.93 6.92
 -4 -2 -3 355.02 10.25
 -3 -2 -3 14.08 2.83
 -2 -2 -3 605.55 11.2
 -1 -2 -3 1131.02 14.39
 0 -2 -3 1.45 3.5
 1 -2 -3 50.54 3.53
 2 -2 -3 38.22 3.23
 3 -2 -3 7986.14 35.09
 4 -2 -3 23.88 3.02
 5 -2 -3 3115.76 25.12
 6 -2 -3 124.96 6.08
 7 -2 -3 5741.26 39.99
 8 -2 -3 745.13 15.92
 9 -2 -3 286.24 10.93
 10 -2 -3 -2.36 7.59
 11 -2 -3 147.36 8.98
 12 -2 -3 291.83 13.01
 13 -2 -3 41.84 6.48
 14 -2 -3 19.61 12.42
 14 -1 -3 2.88 12.07
 13 -1 -3 110.52 9.27
 12 -1 -3 11.85 9.83
 11 -1 -3 62.21 6.6
 10 -1 -3 390.43 13.33
 9 -1 -3 125.69 7.67
 8 -1 -3 1318.33 20.82
 7 -1 -3 3.24 5.54
 6 -1 -3 4516.54 32.76
 5 -1 -3 272.66 7.72
 4 -1 -3 2862.41 22.26
 3 -1 -3 429.72 8.24
 2 -1 -3 664.43 9.59
 1 -1 -3 4018.94 22.74
 0 -1 -3 448.35 8.13
 -1 -1 -3 2182.4 18.67
 -2 -1 -3 771.48 12.09
 -3 -1 -3 1875.69 20.58
 -4 -1 -3 301.7 9.2
 -5 -1 -3 1934.97 24.84
 -6 -1 -3 -3.14 7.19
 -7 -1 -3 697.51 17.54
 -8 -1 -3 321.52 12.68
 -9 -1 -3 107.17 8.12
 -10 -1 -3 -2.19 10.41
 -11 -1 -3 2.09 11.63
 -12 0 -3 7.71 12.98
 -11 0 -3 27.15 11.89
 -10 0 -3 5.31 9.72
 -9 0 -3 157.48 9.67
 -8 0 -3 109.11 8.28
 -7 0 -3 1248.3 22.51
 -6 0 -3 2350.75 28.93
 -5 0 -3 1225.99 18.96
 -4 0 -3 1319.72 18.16
 -3 0 -3 4699.69 31.55
 -2 0 -3 8905.89 39.31
 -1 0 -3 3836.73 23.7
 0 0 -3 233.6 5.96
 1 0 -3 108.37 4.39
 2 0 -3 4968.92 25.16
 3 0 -3 4650.63 25.9
 4 0 -3 1076.02 13.73
 5 0 -3 2687.62 23.5
 6 0 -3 1771.22 20.83
 7 0 -3 5225.75 38.93
 8 0 -3 37.12 5.16
 9 0 -3 1068.67 20.47
 10 0 -3 31.42 5
 11 0 -3 861.15 21.31
 12 0 -3 165.49 10.19
 13 0 -3 -4.07 11.28
 -14 0 3 23.72 13.05
 -14 -1 3 107.74 9.84
 -13 -1 3 3.2 11.26
 12 1 -3 204.39 11.43
 11 1 -3 84.62 7.43
 10 1 -3 1314.72 24.65
 9 1 -3 1091.99 21.17
 8 1 -3 1310.22 21.45
 7 1 -3 1236.61 19.44
 6 1 -3 1115.41 16.87
 5 1 -3 841.75 13.61
 4 1 -3 95.26 4.72
 3 1 -3 228.83 6.23
 2 1 -3 595.15 9.09
 1 1 -3 1607.39 14.1
 0 1 -3 1366.02 13.2
 -1 1 -3 1120.44 12.82
 -2 1 -3 3224.31 23.15
 -3 1 -3 2895.78 24.16
 -4 1 -3 3746.94 29.97
 -5 1 -3 383.31 10.62
 -6 1 -3 478.43 12.86
 -7 1 -3 14.66 7.44
 -8 1 -3 650.36 17.03
 -9 1 -3 69.12 6.76
 -10 1 -3 2.13 9.42
 -11 1 -3 19.86 11.21
 -12 1 -3 6.91 12.33
 -12 2 -3 108.82 9.73
 -11 2 -3 1.08 10.59
 -10 2 -3 79.44 7.69
 -9 2 -3 2.73 8.44
 -8 2 -3 151.64 8.8
 -7 2 -3 1.42 6.7
 -6 2 -3 2.07 5.78
 -5 2 -3 707.44 13.99
 -4 2 -3 8.41 4.71
 -3 2 -3 5474.59 32.5
 -2 2 -3 1721.7 16.87
 -1 2 -3 662.63 9.77
 0 2 -3 624.51 9.15
 1 2 -3 3795.1 21.81
 2 2 -3 2500.95 18.61
 3 2 -3 41.62 3.39
 4 2 -3 112.11 5.05
 5 2 -3 1.93 4.21
 6 2 -3 1563.72 20.34
 7 2 -3 744.24 15.61
 8 2 -3 1406.67 22.68
 9 2 -3 92.55 7.15
 10 2 -3 995.31 22.28
 -11 -2 3 323.52 13.73
 -12 -2 3 30.17 11.14
 -13 -2 3 12.25 11.93
 -13 -3 3 62.25 7.7
 -12 -3 3 2.05 10.85
 -11 -3 3 413.69 15.44
 -10 -3 3 156.19 9.65
 9 3 -3 1121.17 22.29
 8 3 -3 31.58 4.57
 7 3 -3 2200.42 27.35
 6 3 -3 2.54 5.34
 5 3 -3 2827.75 25.83
 4 3 -3 1126.65 15.2
 3 3 -3 248.73 6.88
 2 3 -3 607.79 9.77
 1 3 -3 754.35 10.4
 0 3 -3 7553.48 31.95
 -1 3 -3 843.42 11.33
 -2 3 -3 2610.56 20.86
 -3 3 -3 101.96 5.06
 -4 3 -3 4476.45 32.19
 -5 3 -3 553.02 12.31
 -6 3 -3 31.75 4.06
 -7 3 -3 19.45 6.84
 -8 3 -3 2.04 7.25
 -9 3 -3 213.97 10.58
 -10 3 -3 57.4 6.64
 -11 3 -3 116.76 9.15
 -12 3 -3 11.59 12.05
 -12 4 -3 69.95 7.85
 -11 4 -3 83.32 8.29
 -10 4 -3 26.39 9.75
 -9 4 -3 232.76 11.21
 -8 4 -3 56.93 5.58
 -7 4 -3 -0.2 6.38
 -6 4 -3 864.53 16.58
 -5 4 -3 81.33 5.19
 -4 4 -3 1812.8 20.53
 -3 4 -3 919.16 13.61
 -2 4 -3 209.47 6.37
 -1 4 -3 5196.19 28.38
 0 4 -3 1423.99 14.89
 1 4 -3 3001.7 21.6
 2 4 -3 2.25 3.45
 3 4 -3 501.65 9.99
 4 4 -3 189.12 6.83
 5 4 -3 876.52 15.01
 6 4 -3 1434.03 20.86
 7 4 -3 36.02 4.85
 8 4 -3 619.02 16.08
 -9 -4 3 25.4 8.75
 -10 -4 3 1050.46 23.67
 -11 -4 3 -3.05 10.34
 -12 -4 3 295.15 14.51
 -13 -4 3 -3.95 12.79
 -12 -5 3 174.68 11.83
 -11 -5 3 198.46 11.57
 -10 -5 3 29.48 5.3
 -9 -5 3 333.91 13.14
 -8 -5 3 196.73 9.54
 7 5 -3 5.16 6.8
 6 5 -3 363.32 11.29
 5 5 -3 349.19 10.34
 4 5 -3 1091.9 16.37
 3 5 -3 2452.48 23.12
 2 5 -3 1342.03 16.18
 1 5 -3 3722.18 25.39
 0 5 -3 2685.88 21.47
 -1 5 -3 6258.76 32.96
 -2 5 -3 41.15 3.48
 -3 5 -3 327.94 8.5
 -4 5 -3 212.34 7.39
 -5 5 -3 689.03 13.94
 -6 5 -3 810.11 16.13
 -7 5 -3 251.67 10.17
 -8 5 -3 261.8 10.83
 -9 5 -3 73.21 6.74
 -10 5 -3 347.44 14.24
 -11 5 -3 3.84 10.28
 -12 5 -3 76.29 8.38
 -13 5 -3 24.96 13.71
 -13 6 -3 66.66 8.48
 -12 6 -3 7.8 11.62
 -11 6 -3 315.32 14.44
 -10 6 -3 28.9 10
 -9 6 -3 678.16 18.34
 -8 6 -3 7.3 7.29
 -7 6 -3 731.86 16.73
 -6 6 -3 -0.02 6.05
 -5 6 -3 4.56 5.37
 -4 6 -3 459.81 10.94
 -3 6 -3 17.34 2.79
 -2 6 -3 1091.24 14.9
 -1 6 -3 823.55 12.81
 0 6 -3 9373.97 42.44
 1 6 -3 449.17 9.79
 2 6 -3 3320.64 26.84
 3 6 -3 762.96 13.64
 4 6 -3 1178.79 18.06
 5 6 -3 765.48 15.38
 6 6 -3 45.85 5.17
 -7 -6 3 1.72 7.21
 -8 -6 3 0.51 7.77
 -9 -6 3 107.41 7.86
 -10 -6 3 136.46 9.28
 -11 -6 3 109.92 9.27
 -12 -6 3 25.33 12.76
 -12 -7 3 106.85 10.26
 -11 -7 3 1.72 11.43
 -10 -7 3 60.98 7.19
 -9 -7 3 6.43 9.53
 -8 -7 3 80.11 6.96
 -7 -7 3 149.48 8.56
 -6 -7 3 182.24 8.93
 5 7 -3 777.1 16.4
 4 7 -3 6.36 6.3
 3 7 -3 4503.31 35.35
 2 7 -3 27.08 3.51
 1 7 -3 265.24 8.11
 0 7 -3 679.98 12.35
 -1 7 -3 1662 19.15
 -2 7 -3 1015.43 15.07
 -3 7 -3 10.13 4.65
 -4 7 -3 433.28 10.85
 -5 7 -3 76.69 5.32
 -6 7 -3 1438.59 22.02
 -7 7 -3 91.76 6.95
 -8 7 -3 750.52 18.44
 -9 7 -3 15.47 8.59
 -10 7 -3 391.93 14.88
 -11 7 -3 264.38 13.51
 -12 7 -3 28.13 11.88
 -13 7 -3 11.34 12.78
 -13 8 -3 -4.79 12.93
 -12 8 -3 63.24 7.82
 -11 8 -3 62.98 7.29
 -10 8 -3 142.59 9.36
 -9 8 -3 586.93 17.21
 -8 8 -3 411.67 13.9
 -7 8 -3 543.12 15.01
 -6 8 -3 597.67 14.78
 -5 8 -3 195.21 8.2
 -4 8 -3 220.3 8.27
 -3 8 -3 805.68 14.64
 -2 8 -3 100.75 5.56
 -1 8 -3 1062.14 16.15
 0 8 -3 272.01 8.43
 1 8 -3 255.12 8.37
 2 8 -3 2557.06 26.76
 3 8 -3 145.57 7.79
 -4 -8 3 1652.72 23.55
 -5 -8 3 115.46 7.26
 -6 -8 3 680.27 16.91
 -7 -8 3 5.6 8.34
 -8 -8 3 249.45 12.25
 -9 -8 3 53.59 6.41
 -10 -8 3 4.33 10.83
 -11 -8 3 35.11 12.86
 -10 -9 3 1.13 11.41
 -9 -9 3 62.86 7.15
 -8 -9 3 13.36 9.94
 -7 -9 3 781.82 20.2
 -6 -9 3 118.44 8.08
 -5 -9 3 316.05 11.62
 -4 -9 3 197.42 9.11
 -3 -9 3 962 18.01
 2 9 -3 1046.71 18.14
 1 9 -3 424.4 11.45
 0 9 -3 503.17 11.94
 -1 9 -3 83.57 5.53
 -2 9 -3 965.34 16.66
 -3 9 -3 182.57 7.64
 -4 9 -3 473.7 12.24
 -5 9 -3 179.37 8.17
 -6 9 -3 312.97 11.2
 -7 9 -3 1080.35 21.28
 -8 9 -3 78.92 6.83
 -9 9 -3 357 13.6
 -10 9 -3 70.43 7.14
 -11 9 -3 246.74 13.14
 -12 9 -3 -1.83 11.81
 -13 9 -3 6.44 12.95
 -12 10 -3 18.04 12.25
 -11 10 -3 4.05 10.8
 -10 10 -3 71.5 7.24
 -9 10 -3 -0.3 9.14
 -8 10 -3 679.85 18.29
 -7 10 -3 58.13 6.01
 -6 10 -3 1364.25 23.29
 -5 10 -3 263.31 10.27
 -4 10 -3 1576.86 23.14
 -3 10 -3 444.29 12.14
 -2 10 -3 413.5 11.52
 -1 10 -3 252.51 9.14
 0 10 -3 1.77 5.71
 -1 -10 3 721.36 15.42
 -2 -10 3 22.82 3.8
 -3 -10 3 812.43 17.6
 -4 -10 3 84.92 6.41
 -5 -10 3 1089.71 21.93
 -6 -10 3 211.33 10.87
 -7 -10 3 245.6 12.14
 -8 -10 3 113.69 9.02
 -9 -10 3 53.91 7.17
 -10 -10 3 20.48 12.93
 -9 -11 3 2.19 11.93
 -8 -11 3 185.73 11.72
 -7 -11 3 41.04 6.34
 -6 -11 3 473.87 16.46
 -5 -11 3 27.17 9.25
 -4 -11 3 790 18.91
 -3 -11 3 5.68 7.37
 -2 -11 3 317.37 11.29
 -1 -11 3 489.72 13.76
 0 -11 3 126.54 7
 -1 11 -3 251.82 9.81
 -2 11 -3 42.46 4.97
 -3 11 -3 1337.02 21.91
 -4 11 -3 -0.17 6.91
 -5 11 -3 659.58 16.13
 -6 11 -3 4.12 7.45
 -7 11 -3 412.1 14
 -8 11 -3 19.01 9
 -9 11 -3 7.67 9.18
 -10 11 -3 12.06 10.21
 -11 11 -3 1.42 10.79
 -12 11 -3 21.56 13.02
 -12 12 -3 6.76 12.26
 -11 12 -3 13.62 11.59
 -10 12 -3 -0.21 10.25
 -9 12 -3 100.75 8.47
 -8 12 -3 89.87 7.78
 -7 12 -3 108.21 7.69
 -6 12 -3 222.83 10.45
 -5 12 -3 112.21 7.58
 -4 12 -3 951.15 19.67
 -3 12 -3 6.68 7.16
 2 -12 3 728.41 16.59
 1 -12 3 21.33 7.33
 0 -12 3 373.54 12.3
 -1 -12 3 30.81 4.4
 -2 -12 3 172.57 8.99
 -3 -12 3 34.82 4.89
 -4 -12 3 24.18 9.24
 -5 -12 3 198.51 10.76
 -6 -12 3 2.35 10.04
 -7 -12 3 240.9 12.97
 -8 -12 3 5.52 11.86
 -9 -12 3 63.72 8.31
 -8 -13 3 76 8.7
 -7 -13 3 15.97 11.91
 -6 -13 3 147.78 10.61
 -5 -13 3 71.67 7.3
 -4 -13 3 115.16 8.58
 -3 -13 3 12.65 8.59
 -2 -13 3 6.54 8.15
 -1 -13 3 421.52 13.95
 0 -13 3 1.82 7.45
 1 -13 3 292.12 11.33
 2 -13 3 80.02 6.35
 3 -13 3 437.48 14.05
 4 -13 3 411.74 13.63
 -5 13 -3 145.32 8.88
 -6 13 -3 315.93 12.7
 -7 13 -3 15.51 9.06
 -8 13 -3 175.52 10.5
 -9 13 -3 18.6 10.48
 -10 13 -3 134.86 10.01
 -11 13 -3 -0.93 11.91
 -12 13 -3 4.47 12.93
 -11 14 -3 -1.51 13.09
 -10 14 -3 186.21 12.3
 -9 14 -3 4.71 10.25
 -8 14 -3 7.34 9.81
 7 -14 3 26.3 9.86
 6 -14 3 5 8.81
 5 -14 3 181.88 9.94
 4 -14 3 62.79 6.33
 3 -14 3 374.28 13.57
 2 -14 3 30.81 4.6
 1 -14 3 484.76 15.3
 0 -14 3 199.07 10.29
 -1 -14 3 141.41 9.09
 -2 -14 3 26.28 4.64
 -3 -14 3 8.97 9.3
 -4 -14 3 82.72 7.8
 -5 -14 3 -0.85 10.72
 -6 -14 3 7.7 11.72
 -7 -14 3 14.17 12.74
 -6 -15 3 -2.15 12.48
 -5 -15 3 9.71 11.81
 -4 -15 3 24.52 11.46
 -3 -15 3 -3.14 10.34
 -2 -15 3 184.49 10.9
 -1 -15 3 13.01 9.52
 0 -15 3 359.44 14.04
 1 -15 3 3.55 8.77
 2 -15 3 343.31 13.8
 3 -15 3 4.55 8.53
 4 -15 3 275.2 12.21
 5 -15 3 5.85 9.08
 6 -15 3 29.19 4.98
 7 -15 3 43.07 5.85
 8 -15 3 3.75 10
 9 -15 3 43.75 6.36
 -10 15 -3 2.21 11.71
 -11 15 -3 49.82 7.61
 10 -16 3 103.91 9.53
 9 -16 3 22.63 12.39
 8 -16 3 44.11 6.42
 7 -16 3 1.58 10.32
 6 -16 3 75.35 7.41
 5 -16 3 4.82 9.31
 4 -16 3 8.32 9.55
 3 -16 3 10.35 9.68
 2 -16 3 -7.91 9.72
 1 -16 3 277.97 13.05
 0 -16 3 0.79 9.82
 -1 -16 3 249.72 12.83
 -2 -16 3 5.26 10.53
 -3 -16 3 89.19 8.95
 -4 -16 3 13.38 11.96
 -5 -16 3 12.96 12.51
 -4 -17 3 61.29 8.28
 -3 -17 3 -0.25 12.37
 -2 -17 3 172.08 11.61
 -1 -17 3 27.88 11.53
 0 -17 3 168.02 10.84
 1 -17 3 52.98 7.02
 2 -17 3 73.71 8.01
 3 -17 3 7.97 10.29
 4 -17 3 0.87 10.11
 5 -17 3 12.5 10.46
 6 -17 3 13.5 11.13
 7 -17 3 49.87 6.83
 8 -17 3 22.32 12.12
 9 -17 3 11.27 12.7
 10 -17 3 43.49 7.24
 9 -18 3 13.59 13.28
 8 -18 3 39.12 6.71
 7 -18 3 41.92 7.16
 6 -18 3 56.04 7.45
 5 -18 3 19.5 11.78
 4 -18 3 16.27 11.3
 3 -18 3 -2.6 11.06
 2 -18 3 56.36 7.22
 1 -18 3 6.72 11.72
 0 -18 3 24.8 12.06
 -1 -18 3 54.13 7.38
 -2 -18 3 27.23 13.16
 -1 -19 3 27.42 13.87
 0 -19 3 1.23 12.16
 1 -19 3 12.02 12.67
 2 -19 3 13.99 12.14
 3 -19 3 29.83 12.76
 4 -19 3 21.27 12.29
 5 -19 3 -3.01 12.43
 6 -19 3 57.23 7.66
 7 -19 3 3.2 12.63
 4 -20 3 -0.28 12.7
 3 -20 3 39.67 13.84
 6 -19 4 11.56 12.82
 5 -19 4 2.99 11.98
 4 -19 4 -1 12.28
 3 -19 4 3.18 12.16
 2 -19 4 -0.22 12.11
 1 -19 4 14.65 13
 0 -19 4 -2.75 12.69
 -1 -19 4 23.1 13.69
 -2 -18 4 38.46 6.77
 -1 -18 4 33.51 6.19
 0 -18 4 20.11 12.49
 1 -18 4 33.88 12.19
 2 -18 4 21.91 11.65
 3 -18 4 -2.82 11.32
 4 -18 4 -2.24 11.25
 5 -18 4 2.09 11.35
 6 -18 4 -0.45 11.76
 7 -18 4 25.73 13.02
 -8 18 -4 2.35 12.52
 -9 17 -4 5.17 12.41
 -8 17 -4 11.45 12.27
 -7 17 -4 -5.74 11.93
 -6 17 -4 18.11 11.34
 5 -17 4 8.86 10.73
 4 -17 4 2.12 10.27
 3 -17 4 12.14 10.43
 2 -17 4 54.39 6.74
 1 -17 4 27.23 11.27
 0 -17 4 137.61 10.38
 -1 -17 4 43.12 6.49
 -2 -17 4 34.17 12.44
 -3 -17 4 7.67 12.32
 -4 -17 4 20.87 13.27
 -5 -16 4 -0.73 12.45
 -4 -16 4 3.5 12
 -3 -16 4 12.81 11.34
 -2 -16 4 2.34 10.41
 -1 -16 4 120.59 9.35
 0 -16 4 -2.21 10.14
 1 -16 4 207.23 11.5
 2 -16 4 16.58 10.06
 3 -16 4 141.77 9.85
 -4 16 -4 28.41 10.45
 -5 16 -4 47.62 6.26
 -6 16 -4 6.3 10.26
 -7 16 -4 0.72 10.59
 -8 16 -4 2.25 11.27
 -9 16 -4 13.38 12.39
 -10 16 -4 47.75 7.49
 -10 15 -4 -5.6 12.47
 -9 15 -4 16.24 11.91
 -8 15 -4 12.05 10.94
 -7 15 -4 -0.95 10.44
 -6 15 -4 34.65 5.55
 -5 15 -4 -1.37 9.6
 -4 15 -4 532.99 17.14
 -3 15 -4 -1.18 9.27
 -2 15 -4 601.6 17.94
 1 -15 4 -4.37 9.35
 0 -15 4 333.03 13.65
 -1 -15 4 2.98 9.48
 -2 -15 4 36.68 5.34
 -3 -15 4 2.97 9.8
 -4 -15 4 3.74 10.52
 -5 -15 4 9.29 11.54
 -6 -15 4 -2.91 12.74
 -7 -14 4 34.57 6.47
 -6 -14 4 29.26 12.23
 -5 -14 4 5.46 10.79
 -4 -14 4 103.24 8.61
 -3 -14 4 5.86 9.06
 -2 -14 4 6.84 8.89
 -1 -14 4 85.42 7.04
 0 14 -4 73.29 6.92
 -1 14 -4 248.2 11.25
 -2 14 -4 20.51 8.69
 -3 14 -4 411.36 14.43
 -4 14 -4 35.65 5.49
 -5 14 -4 231.97 11.58
 -6 14 -4 6.79 9.12
 -7 14 -4 129.43 9.2
 -8 14 -4 3.2 9.93
 -9 14 -4 1.47 10.96
 -10 14 -4 29.14 12.38
 -11 14 -4 -7.49 12.73
 -11 13 -4 4.89 12.17
 -10 13 -4 8.99 11.7
 -9 13 -4 -0.67 10.6
 -8 13 -4 133.75 9.6
 -7 13 -4 80.56 7.48
 -6 13 -4 282.23 12.24
 -5 13 -4 200.28 10.26
 -4 13 -4 319.99 12.81
 -3 13 -4 343.05 12.8
 -2 13 -4 156.74 8.69
 -1 13 -4 102.17 7.29
 0 13 -4 7.34 7.51
 1 13 -4 453.11 14.52
 -2 -13 4 2.76 8.11
 -3 -13 4 51.57 5.8
 -4 -13 4 94.21 7.84
 -5 -13 4 166.85 10.46
 -6 -13 4 255.95 13.42
 -7 -13 4 41.77 6.43
 -8 -13 4 60.12 8.12
 -9 -12 4 31.32 13.52
 -8 -12 4 4.54 11.94
 -7 -12 4 359.44 15.7
 -6 -12 4 4.76 10.2
 -5 -12 4 296.87 13.03
 -4 -12 4 76.64 6.81
 3 12 -4 243.2 11.08
 2 12 -4 167.19 9.12
 1 12 -4 32.13 4.69
 0 12 -4 263.24 10.69
 -1 12 -4 4.91 6.87
 -2 12 -4 508.87 14.4
 -3 12 -4 76.52 6.69
 -4 12 -4 799.55 18.68
 -5 12 -4 80.39 6.9
 -6 12 -4 353.57 13.17
 -7 12 -4 146.18 9.42
 -8 12 -4 30 10.1
 -9 12 -4 43.43 6.49
 -10 12 -4 -0.88 10.73
 -11 12 -4 20.06 12.33
 -12 11 -4 14.67 13.1
 -11 11 -4 4.11 11.49
 -10 11 -4 7.18 10.72
 -9 11 -4 115.19 8.88
 -8 11 -4 32.18 5.48
 -7 11 -4 471.21 15.31
 -6 11 -4 3.4 7.85
 -5 11 -4 649 16.43
 -4 11 -4 -1.43 7.19
 -3 11 -4 887.84 18.31
 -2 11 -4 0.54 6.55
 -1 11 -4 120.79 7.22
 0 11 -4 3.34 6.39
 1 11 -4 79.43 6.43
 2 11 -4 796.39 17.85
 3 11 -4 -0.63 7.52
 4 11 -4 751.12 18.67
 -5 -11 4 15.83 8.87
 -6 -11 4 547.98 17.65
 -7 -11 4 55.51 6.91
 -8 -11 4 202.27 12
 -9 -11 4 2.3 11.78
 -10 -10 4 26.01 12.99
 -9 -10 4 -0.66 11.48
 -8 -10 4 217.22 12.01
 -7 -10 4 58.09 6.73
 -6 -10 4 17.02 8.97
 5 10 -4 353.56 12.81
 4 10 -4 64.52 6.33
 3 10 -4 1218.21 21.78
 2 10 -4 40.24 4.89
 1 10 -4 660.97 15.07
 0 10 -4 -2.88 6.14
 -1 10 -4 353.28 11.09
 -2 10 -4 174.49 8.02
 -3 10 -4 89.11 6.19
 -4 10 -4 444.6 13.02
 -5 10 -4 29.4 4.89
 -6 10 -4 604.33 16.39
 -7 10 -4 -0.21 8.1
 -8 10 -4 534.79 16.62
 -9 10 -4 1.66 9.52
 -10 10 -4 118.35 9.2
 -11 10 -4 21.92 11.78
 -12 10 -4 6.41 12.53
 -12 9 -4 1.1 12.08
 -11 9 -4 131.53 10.52
 -10 9 -4 4.46 10.41
 -9 9 -4 303.14 13.31
 -8 9 -4 32.46 5.32
 -7 9 -4 756.65 18.76
 -6 9 -4 35.72 5.13
 -5 9 -4 108.58 6.85
 -4 9 -4 97.75 6.27
 -3 9 -4 288.12 10.04
 -2 9 -4 396.1 11.16
 -1 9 -4 248.41 9.04
 0 9 -4 312.58 9.95
 1 9 -4 197.67 8.27
 2 9 -4 245.9 9.6
 3 9 -4 1456.23 22.73
 4 9 -4 126.23 7.77
 5 9 -4 553.03 15.29
 6 9 -4 60.25 6.1
 7 9 -4 164.73 9.62
 -8 -9 4 9.33 9.74
 -9 -9 4 26.77 11.14
 -10 -9 4 7.73 11.72
 -11 -9 4 33.76 13.64
 -11 -8 4 52.37 7.25
 -10 -8 4 11.51 11.09
 -9 -8 4 67.56 7.02
 8 8 -4 116.24 8.7
 7 8 -4 5.14 7.9
 6 8 -4 566.6 15.61
 5 8 -4 0.26 6.94
 4 8 -4 2071.71 27.02
 3 8 -4 625.77 14.35
 2 8 -4 748.39 14.79
 1 8 -4 192.07 7.68
 0 8 -4 28.84 3.97
 -1 8 -4 1610.52 21.08
 -2 8 -4 5.56 5.13
 -3 8 -4 608.62 13.39
 -4 8 -4 -2.22 5.68
 -5 8 -4 237.04 9.41
 -6 8 -4 584.58 15.36
 -7 8 -4 467.35 14.27
 -8 8 -4 161.1 9.48
 -9 8 -4 165.65 10.09
 -10 8 -4 93.81 8.84
 -11 8 -4 5.52 11.37
 -12 8 -4 34.76 13.2
 -12 7 -4 36.16 6.14
 -11 7 -4 69.58 8.16
 -10 7 -4 81.14 8.13
 -9 7 -4 14.91 9.28
 -8 7 -4 92.78 7.3
 -7 7 -4 41.27 5.11
 -6 7 -4 683.13 16.02
 -5 7 -4 55.89 5.07
 -4 7 -4 192.2 8.15
 -3 7 -4 343.67 9.81
 -2 7 -4 63.39 4.76
 -1 7 -4 6318.5 39.45
 0 7 -4 2158.04 22.92
 1 7 -4 2581.92 25.37
 2 7 -4 323.84 9.48
 3 7 -4 2976.9 29.51
 4 7 -4 33.38 4.33
 5 7 -4 608.16 14.65
 6 7 -4 -2.1 7.05
 7 7 -4 95.98 7.18
 8 7 -4 176.38 9.89
 9 7 -4 -0.34 9.79
 -10 -7 4 234.78 12.13
 -11 -7 4 -5.31 11.87
 -12 -7 4 180.53 12.37
 -12 -6 4 2.19 12.35
 -11 -6 4 171.99 11.06
 10 6 -4 195.08 11.4
 9 6 -4 437.74 15.16
 8 6 -4 1.67 7.91
 7 6 -4 419.64 13.35
 6 6 -4 32.42 4.75
 5 6 -4 1204.81 19.55
 4 6 -4 382.18 10.66
 3 6 -4 429.16 10.59
 2 6 -4 1075.58 15.91
 1 6 -4 2146.83 22.12
 0 6 -4 8452.54 42.99
 -1 6 -4 1483.1 18.51
 -2 6 -4 1430.4 18.45
 -3 6 -4 3.8 4.77
 -4 6 -4 2045.67 24.5
 -5 6 -4 252.94 9.4
 -6 6 -4 142.03 7.73
 -7 6 -4 20.9 7.54
 -8 6 -4 22.92 8.3
 -9 6 -4 150.97 9.39
 -10 6 -4 5.74 9.72
 -11 6 -4 114.86 9.62
 -12 6 -4 -3.04 12.11
 -12 5 -4 60.38 7.83
 -11 5 -4 -1.97 11.23
 -10 5 -4 146.1 10.11
 -9 5 -4 42.55 5.7
 -8 5 -4 -6.75 8.09
 -7 5 -4 101.37 6.93
 -6 5 -4 3.23 6.24
 -5 5 -4 987.03 17.86
 -4 5 -4 1.95 5.21
 -3 5 -4 3394.64 29.23
 -2 5 -4 22.94 3.02
 -1 5 -4 1995.73 20.38
 0 5 -4 1236.31 15.91
 1 5 -4 715.89 12.08
 2 5 -4 712.89 12.42
 3 5 -4 60.71 4.37
 4 5 -4 515.48 11.68
 5 5 -4 334.93 10.24
 6 5 -4 1313.1 21.19
 7 5 -4 215.43 9.67
 8 5 -4 1256.82 23.43
 9 5 -4 249.39 11.61
 10 5 -4 323.94 14.11
 11 5 -4 213 12.14
 12 5 -4 118.62 9.75
 13 4 -4 0.64 12.31
 12 4 -4 116.93 9.61
 11 4 -4 10.9 10.38
 10 4 -4 1265.13 26
 9 4 -4 633.85 17.46
 8 4 -4 504.51 14.54
 7 4 -4 326.07 11.35
 6 4 -4 1595.78 22.23
 5 4 -4 431.24 11.14
 4 4 -4 8.81 4.6
 3 4 -4 1358.86 17.11
 2 4 -4 4.8 3.86
 1 4 -4 3097.01 24.01
 0 4 -4 2093.06 19.78
 -1 4 -4 1694.84 18.15
 -2 4 -4 1588.51 18.47
 -3 4 -4 1349.28 18.28
 -4 4 -4 2543.7 26.63
 -5 4 -4 48.05 4.98
 -6 4 -4 42.19 4.82
 -7 4 -4 19.28 7.38
 -8 4 -4 204.45 10.11
 -9 4 -4 147.19 9.59
 -10 4 -4 24.86 10.6
 -11 4 -4 40.81 6.29
 -12 4 -4 16.81 12.79
 -12 3 -4 1.84 12.79
 -11 3 -4 21.28 11.9
 -10 3 -4 3.44 9.86
 -9 3 -4 326.99 13.68
 -8 3 -4 11.73 8.55
 -7 3 -4 445.95 13.89
 -6 3 -4 966.71 19.05
 -5 3 -4 833.71 16.3
 -4 3 -4 2069.35 23.77
 -3 3 -4 1126.15 16.49
 -2 3 -4 2838.93 24.31
 -1 3 -4 761.84 11.93
 0 3 -4 2289.19 20.02
 1 3 -4 582.23 10.11
 2 3 -4 3318.99 24.48
 3 3 -4 1091.22 14.72
 4 3 -4 1055.24 15.38
 5 3 -4 1041.77 16.31
 6 3 -4 221.83 8.57
 7 3 -4 1808.99 24.63
 8 3 -4 204.76 9.78
 9 3 -4 1068.87 21.52
 10 3 -4 16.77 9.37
 11 3 -4 626.86 19.21
 12 3 -4 8.11 10.97
 13 3 -4 -0.05 12.13
 13 2 -4 19.17 12.1
 12 2 -4 -1 10.72
 11 2 -4 129.1 9.17
 10 2 -4 811.32 19.81
 9 2 -4 -0.02 7.55
 8 2 -4 950.35 18.91
 7 2 -4 194.88 8.63
 6 2 -4 3355.62 30.74
 5 2 -4 847.09 14.37
 4 2 -4 1017.92 14.7
 3 2 -4 315.7 7.96
 2 2 -4 591.72 10.17
 1 2 -4 2152.23 18.87
 0 2 -4 684.84 10.77
 -1 2 -4 2001.63 19.1
 -2 2 -4 3.95 4.2
 -3 2 -4 3357.27 28.32
 -4 2 -4 69.8 5.12
 -5 2 -4 2129.27 26.39
 -6 2 -4 20.3 4.44
 -7 2 -4 780.24 18.66
 -8 2 -4 476.56 15.68
 -9 2 -4 12.64 9.43
 -10 2 -4 1.72 9.86
 -11 2 -4 -1.11 11.52
 -12 2 -4 38.22 14.04
 -11 1 -4 12.76 12.11
 -10 1 -4 11.72 10.58
 -9 1 -4 -0.3 9.34
 -8 1 -4 552.74 16.92
 -7 1 -4 49.49 6.2
 -6 1 -4 1426.16 23.42
 -5 1 -4 174.35 8.16
 -4 1 -4 2181.96 24.95
 -3 1 -4 1060.01 16.09
 -2 1 -4 2783.06 24.45
 -1 1 -4 262.56 7.17
 0 1 -4 312.75 7.45
 1 1 -4 520.47 9.37
 2 1 -4 44.91 3.32
 3 1 -4 3429.63 24.83
 4 1 -4 382.66 9.08
 5 1 -4 3438.91 28.09
 6 1 -4 783.52 14.68
 7 1 -4 3073.88 30.75
 8 1 -4 762.33 16.81
 9 1 -4 208.22 9.87
 10 1 -4 70.39 6.76
 11 1 -4 39.34 5.54
 12 1 -4 176.16 10.61
 13 1 -4 34.97 6.2
 14 1 -4 36.71 13.45
 14 0 -4 59.57 7.5
 13 0 -4 16.42 11.28
 12 0 -4 158.76 9.98
 11 0 -4 94.2 7.62
 10 0 -4 18.43 8.15
 9 0 -4 623.38 15.92
 8 0 -4 1.85 6.41
 7 0 -4 2941.46 30.24
 6 0 -4 3070.02 28.08
 5 0 -4 1505.36 18.91
 4 0 -4 1435.31 17.13
 3 0 -4 2967.6 22.96
 2 0 -4 1484.53 15.84
 1 0 -4 268.77 6.82
 0 0 -4 1.43 3.33
 -1 0 -4 83.78 4.42
 -2 0 -4 2370.41 23
 -3 0 -4 1497.45 19.4
 -4 0 -4 190.07 7.85
 -5 0 -4 2512.45 29.22
 -6 0 -4 581.2 15.2
 -7 0 -4 1294.05 23.87
 -8 0 -4 34.23 5.79
 -9 0 -4 109.5 8.54
 -10 0 -4 19.97 11.2
 -11 0 -4 86.33 9.28
 -11 -1 -4 -2.32 13.12
 -10 -1 -4 46.63 6.59
 -9 -1 -4 155.27 10.24
 -8 -1 -4 140.79 9.19
 -7 -1 -4 77.19 7.32
 -6 -1 -4 173.92 9.12
 -5 -1 -4 695.49 15.99
 -4 -1 -4 352.03 10.44
 -3 -1 -4 43.1 3.96
 -2 -1 -4 -1.82 4.66
 -1 -1 -4 455.83 9.74
 0 -1 -4 707.62 11.53
 1 -1 -4 87.76 4.22
 2 -1 -4 1817.93 17.87
 3 -1 -4 7062.78 35.77
 4 -1 -4 2357.98 21.91
 5 -1 -4 297.76 8.44
 6 -1 -4 2508.67 25.58
 7 -1 -4 467.83 12.07
 8 -1 -4 878.43 17.51
 9 -1 -4 432.25 13.31
 10 -1 -4 33.62 4.91
 11 -1 -4 20.32 9.07
 12 -1 -4 -2.33 10.17
 13 -1 -4 300.83 14.36
 14 -1 -4 9.59 12.21
 14 -2 -4 107.46 10.06
 13 -2 -4 21.26 11.65
 12 -2 -4 420.41 15.56
 11 -2 -4 4.11 8.32
 10 -2 -4 55.51 5.73
 9 -2 -4 301.76 11.49
 8 -2 -4 87.99 6.39
 7 -2 -4 2233.12 26.06
 6 -2 -4 3.46 4.73
 5 -2 -4 2801.2 25.57
 4 -2 -4 2.27 4.32
 3 -2 -4 11407.52 46.55
 2 -2 -4 266.57 7.28
 1 -2 -4 2617.51 22.15
 0 -2 -4 106.78 4.95
 -1 -2 -4 1287.78 17.22
 -2 -2 -4 1196.47 17.35
 -3 -2 -4 23.92 3.32
 -4 -2 -4 48.97 4.71
 -5 -2 -4 -0.08 6.72
 -6 -2 -4 347.22 12.59
 -7 -2 -4 204.5 10.42
 -8 -2 -4 190.85 10.77
 -9 -2 -4 11.55 10.82
 -10 -2 -4 55.57 7.54
 -11 -2 -4 39.81 14.37
 -10 -3 -4 4.74 12.38
 -9 -3 -4 263.6 13.6
 -8 -3 -4 2.27 9.48
 -7 -3 -4 300.49 12.78
 -6 -3 -4 3.85 7.64
 -5 -3 -4 450.18 13.63
 -4 -3 -4 51.04 4.72
 -3 -3 -4 12.96 5.64
 -2 -3 -4 511.82 11.98
 -1 -3 -4 385.96 9.86
 0 -3 -4 3620.51 28.28
 1 -3 -4 652.01 11.61
 2 -3 -4 684.02 11.89
 3 -3 -4 4059.45 28.93
 4 -3 -4 3985.53 29.37
 5 -3 -4 2610.94 25.09
 6 -3 -4 334.92 9.93
 7 -3 -4 78.81 5.65
 8 -3 -4 3.15 6.35
 9 -3 -4 2418.33 30.75
 10 -3 -4 227.89 10.33
 11 -3 -4 211.67 10.76
 12 -3 -4 153.26 9.97
 13 -3 -4 672.63 20.98
 14 -3 -4 220.82 13.05
 14 -4 -4 12.91 12.36
 13 -4 -4 502.32 18.18
 12 -4 -4 297.56 13.45
 11 -4 -4 517.92 16.31
 10 -4 -4 303.33 12.05
 9 -4 -4 2120.42 28.92
 8 -4 -4 79.84 5.97
 7 -4 -4 95.15 6.06
 6 -4 -4 979.05 16.46
 5 -4 -4 22.79 3.57
 4 -4 -4 1022.03 15.53
 3 -4 -4 1983.75 21.06
 2 -4 -4 1290.95 17.03
 1 -4 -4 2386.86 23.58
 0 -4 -4 1328.13 18.01
 -1 -4 -4 2759.64 27.29
 -2 -4 -4 45.3 4.27
 -3 -4 -4 139.52 7.15
 -4 -4 -4 69.83 5.8
 -5 -4 -4 179.95 9.07
 -6 -4 -4 199.53 10.42
 -7 -4 -4 17.44 9.29
 -8 -4 -4 40.98 5.85
 -9 -4 -4 34.11 12.24
 -10 -4 -4 84.82 9.11
 -9 -5 -4 41.2 6.75
 -8 -5 -4 20.69 11.32
 -7 -5 -4 -0.24 9.52
 -6 -5 -4 69.61 6.65
 -5 -5 -4 50.04 5.67
 -4 -5 -4 411.98 13.15
 -3 -5 -4 393.59 12.19
 -2 -5 -4 249.18 9.34
 -1 -5 -4 590.12 13.36
 0 -5 -4 1658.1 21.35
 1 -5 -4 2318.02 24.32
 2 -5 -4 370.48 9.51
 3 -5 -4 370.4 9.62
 4 -5 -4 151.3 6.55
 5 -5 -4 1965.11 22.84
 6 -5 -4 421.1 11.33
 7 -5 -4 10.92 6.25
 8 -5 -4 4.81 6.53
 9 -5 -4 162.89 9.02
 10 -5 -4 888.98 20.04
 11 -5 -4 21.44 4.89
 12 -5 -4 457.57 16.25
 13 -5 -4 93.06 9.04
 14 -5 -4 278.99 14.36
 14 -6 -4 5.78 11.89
 13 -6 -4 402.06 16.61
 12 -6 -4 24 10.23
 11 -6 -4 890.66 21.52
 10 -6 -4 -0.49 8.25
 9 -6 -4 831.02 18.41
 8 -6 -4 463.18 13.59
 7 -6 -4 310.45 10.56
 6 -6 -4 348.33 10.53
 5 -6 -4 987.4 16.92
 4 -6 -4 612.14 13.02
 3 -6 -4 79.84 4.95
 2 -6 -4 1926.6 23.01
 1 -6 -4 8.26 5.63
 0 -6 -4 2346.9 26.83
 -1 -6 -4 85.35 5.88
 -2 -6 -4 918.96 18.44
 -3 -6 -4 48.73 5.59
 -4 -6 -4 282.25 11.71
 -5 -6 -4 267.15 11.94
 -6 -6 -4 -1.94 9.14
 -7 -6 -4 6.27 9.99
 -8 -6 -4 1.9 11.15
 -9 -6 -4 37.09 13.95
 -8 -7 -4 21.22 12.59
 -7 -7 -4 75.97 7.98
 -6 -7 -4 -0.25 9.54
 -5 -7 -4 127.13 8.56
 -4 -7 -4 29.63 5.31
 -3 -7 -4 1231.8 23.46
 -2 -7 -4 84.89 6.76
 -1 -7 -4 1156.03 20.31
 0 -7 -4 75.32 6.14
 1 -7 -4 3691.25 34.52
 2 -7 -4 535.15 12.96
 3 -7 -4 133.52 6.65
 4 -7 -4 172.94 7.65
 5 -7 -4 164.02 7.62
 6 -7 -4 1443.66 21.81
 7 -7 -4 106.35 6.9
 8 -7 -4 1568.64 24.57
 9 -7 -4 4.79 7.68
 10 -7 -4 1054.16 22.08
 11 -7 -4 383.2 14.55
 12 -7 -4 74.52 7.47
 13 -7 -4 23.08 11.56
 14 -7 -4 77.25 8.3
 14 -8 -4 73.53 7.95
 13 -8 -4 -1.07 11.15
 12 -8 -4 326.55 14.7
 11 -8 -4 220.72 11.86
 10 -8 -4 350.81 13.66
 9 -8 -4 482.65 14.84
 8 -8 -4 822.94 18.62
 7 -8 -4 515.26 14.32
 6 -8 -4 304.78 10.78
 5 -8 -4 477.7 13.01
 4 -8 -4 1.29 5.81
 3 -8 -4 99.5 6.22
 2 -8 -4 299.53 10.33
 1 -8 -4 1145.66 19.85
 0 -8 -4 238.7 9.65
 -1 -8 -4 215.27 9.56
 -2 -8 -4 797.06 18.45
 -3 -8 -4 54.06 6.37
 -4 -8 -4 529.96 16.85
 -5 -8 -4 27.85 5.02
 -6 -8 -4 80.13 7.94
 -7 -8 -4 5.92 11.49
 -8 -8 -4 10.8 12.72
 -7 -9 -4 63.03 8.09
 -6 -9 -4 30.12 12.35
 -5 -9 -4 37.73 6.03
 -4 -9 -4 91.1 7.86
 -3 -9 -4 372.03 14.27
 -2 -9 -4 496.21 15.61
 -1 -9 -4 71.08 6.19
 0 -9 -4 1.75 6.65
 1 -9 -4 9.78 6.7
 2 -9 -4 896.06 18.2
 3 -9 -4 26.17 4.54
 4 -9 -4 246.51 9.87
 5 -9 -4 227.11 9.5
 6 -9 -4 562.12 14.89
 7 -9 -4 1570.12 25.53
 8 -9 -4 98.06 7.63
 9 -9 -4 376.06 13.49
 10 -9 -4 195.66 10.62
 11 -9 -4 554.18 17.6
 12 -9 -4 99.02 8.56
 13 -9 -4 55.77 7.22
 14 -9 -4 25.44 12.98
 14 -10 -4 1.3 12.54
 13 -10 -4 105.56 9.54
 12 -10 -4 9.09 10.84
 11 -10 -4 6.51 9.84
 10 -10 -4 203.44 10.82
 9 -10 -4 3.43 8.5
 8 -10 -4 1420.52 25.68
 7 -10 -4 4.09 7.76
 6 -10 -4 761.82 17.78
 5 -10 -4 152.05 8.3
 4 -10 -4 1242.97 22.34
 3 -10 -4 20.74 3.91
 2 -10 -4 111.52 7.45
 1 -10 -4 1.7 6.93
 0 -10 -4 22.87 8.1
 -1 -10 -4 64.54 6.39
 -2 -10 -4 9.81 9.16
 -3 -10 -4 128.43 9.46
 -4 -10 -4 31.9 10.78
 -5 -10 -4 68.09 7.84
 -6 -10 -4 59.65 8.03
 -6 -11 -4 54.11 8.08
 -5 -11 -4 -7.42 12.14
 -4 -11 -4 40.76 6.02
 -3 -11 -4 -2.87 9.97
 -2 -11 -4 116.29 8.75
 -1 -11 -4 66.36 6.72
 0 -11 -4 -2.68 8.34
 1 -11 -4 127.98 7.96
 2 -11 -4 24.56 4.6
 3 -11 -4 501.53 14.91
 4 -11 -4 62.44 6.47
 5 -11 -4 448.13 14.3
 6 -11 -4 12.95 8.08
 7 -11 -4 497.21 15.6
 8 -11 -4 321.74 13.21
 9 -11 -4 17.33 9.55
 10 -11 -4 129.07 9.25
 11 -11 -4 21.94 10.67
 12 -11 -4 174.22 10.98
 13 -11 -4 0.9 12.06
 13 -12 -4 123.08 10.65
 12 -12 -4 60.9 7.49
 11 -12 -4 55.89 6.81
 10 -12 -4 11.77 10.09
 9 -12 -4 291.97 13.05
 8 -12 -4 102.63 8.21
 7 -12 -4 97.43 8.04
 6 -12 -4 419.52 14.89
 5 -12 -4 86.23 7.22
 4 -12 -4 819.47 19.93
 3 -12 -4 9.73 8.71
 2 -12 -4 317.06 12.7
 1 -12 -4 1.96 8.54
 0 -12 -4 247.58 11.88
 -1 -12 -4 12.96 10.09
 -2 -12 -4 47.66 6.42
 -3 -12 -4 33.99 5.54
 -4 -12 -4 6.03 11.63
 -5 -12 -4 23.91 13.03
 -4 -13 -4 -1.15 12.35
 -3 -13 -4 12 11.65
 -2 -13 -4 4.01 10.68
 -1 -13 -4 132.19 9.86
 0 -13 -4 44.48 6.22
 1 -13 -4 111.01 8.35
 2 -13 -4 76.45 7.17
 3 -13 -4 287.73 12.86
 4 -13 -4 575.2 18.03
 5 -13 -4 83.9 7.83
 6 -13 -4 277.08 12.54
 7 -13 -4 23.32 9.69
 8 -13 -4 249.82 12.48
 9 -13 -4 33.64 5.39
 10 -13 -4 30.62 11.49
 11 -13 -4 86.38 8.44
 12 -13 -4 16.77 12.63
 13 -13 -4 161.19 12.3
 12 -14 -4 103.87 10.1
 11 -14 -4 6.82 11.91
 10 -14 -4 145.67 10.4
 9 -14 -4 16.33 10.93
 8 -14 -4 7.29 10.35
 7 -14 -4 14.89 10.28
 6 -14 -4 6.21 9.6
 5 -14 -4 214.82 11.67
 4 -14 -4 18.3 10.18
 3 -14 -4 270.96 13.24
 2 -14 -4 21.63 10.62
 1 -14 -4 264.14 13.43
 0 -14 -4 57.01 7.72
 -1 -14 -4 47.2 6.78
 -2 -14 -4 1.49 11.72
 -3 -14 -4 4.51 12.57
 -2 -15 -4 4.22 12.64
 -1 -15 -4 1.88 11.96
 0 -15 -4 194.54 12.36
 1 -15 -4 5.23 11.49
 2 -15 -4 138.07 10.27
 3 -15 -4 2.29 10.58
 4 -15 -4 285.33 13.92
 5 -15 -4 11.12 10.66
 6 -15 -4 23.34 11.06
 7 -15 -4 58.05 7.13
 8 -15 -4 11.85 11.1
 9 -15 -4 116.65 9.86
 10 -15 -4 6.25 11.83
 11 -15 -4 169.16 12.05
 10 -16 -4 130.79 10.88
 9 -16 -4 7.16 12.13
 8 -16 -4 80.81 8.4
 7 -16 -4 -1.92 11.54
 6 -16 -4 87.66 8.78
 5 -16 -4 36.65 12.35
 4 -16 -4 27.16 12.03
 3 -16 -4 88.74 8.83
 2 -16 -4 14.18 12.24
 1 -16 -4 191.25 13.03
 0 -16 -4 -4.04 13.14
 2 -17 -4 11.87 13.02
 3 -17 -4 18.81 12.74
 4 -17 -4 1.19 12.01
 5 -17 -4 26.09 12.65
 6 -17 -4 -0.41 12.04
 7 -17 -4 12.05 12.62
 8 -17 -4 18.9 13.03
 9 -17 -4 15.84 13.16
 6 -17 -5 4.79 12.78
 5 -17 -5 5.44 12.8
 2 -16 -5 -0.28 12.36
 3 -16 -5 0.38 12.22
 4 -16 -5 3.13 11.84
 5 -16 -5 3.37 11.87
 6 -16 -5 34.45 6.16
 7 -16 -5 -4.07 12.82
 8 -16 -5 85.39 8.44
 9 -16 -5 -1.05 12.6
 11 -15 -5 198.77 13.12
 10 -15 -5 -0.66 12.61
 9 -15 -5 75.99 8.46
 8 -15 -5 9.11 11.62
 7 -15 -5 57.42 7.4
 6 -15 -5 26.89 11.81
 5 -15 -5 24.3 11.6
 4 -15 -5 24.86 11.79
 3 -15 -5 1.92 11.19
 2 -15 -5 48.7 6.87
 1 -15 -5 4.6 12.46
 0 -15 -5 84.37 9.82
 -2 -14 -5 9.76 12.7
 -1 -14 -5 17.99 12.66
 0 -14 -5 89.49 9.26
 1 -14 -5 96.77 9.65
 2 -14 -5 12.34 11.01
 3 -14 -5 139.62 10.21
 4 -14 -5 49.89 6.81
 5 -14 -5 142.84 9.96
 6 -14 -5 5.35 10.04
 7 -14 -5 17.59 10.9
 8 -14 -5 24.12 11.14
 9 -14 -5 64.47 7.7
 10 -14 -5 185.76 12.25
 11 -14 -5 35.67 13.34
 12 -13 -5 83.48 9.35
 11 -13 -5 33.11 12.5
 10 -13 -5 115.69 9.44
 9 -13 -5 7.83 10.78
 8 -13 -5 88.15 7.79
 7 -13 -5 2.17 9.55
 6 -13 -5 110.26 8.58
 5 -13 -5 143.56 9.7
 4 -13 -5 133.67 9.61
 3 -13 -5 224.04 11.89
 2 -13 -5 45.44 6.49
 1 -13 -5 220.88 12.37
 0 -13 -5 14.9 11.61
 -1 -13 -5 36.32 12.31
 -2 -13 -5 -0.31 11.72
 -3 -13 -5 23.77 13.29
 -4 -12 -5 13.16 13
 -3 -12 -5 3.22 11.71
 -2 -12 -5 3.61 10.93
 -1 -12 -5 8.48 10.67
 0 -12 -5 353.83 14.97
 1 -12 -5 -4.35 9.93
 2 -12 -5 310.09 13.24
 3 -12 -5 -1.05 9.43
 4 -12 -5 739.48 20.09
 5 -12 -5 133.95 9.2
 6 -12 -5 112.83 8.42
 7 -12 -5 53.6 6.2
 8 -12 -5 62 6.79
 9 -12 -5 81.83 7.7
 10 -12 -5 8.09 10.68
 11 -12 -5 21 11.58
 12 -12 -5 3.87 12.02
 13 -12 -5 182.44 12.58
 13 -11 -5 1.97 12.31
 12 -11 -5 194.6 12.34
 11 -11 -5 1.99 10.34
 10 -11 -5 122.4 9.03
 9 -11 -5 31.02 5.04
 8 -11 -5 67.78 6.93
 7 -11 -5 366.19 13.91
 6 -11 -5 3.74 8.36
 5 -11 -5 786.15 19.71
 4 -11 -5 4.48 8.74
 3 -11 -5 587.41 17.08
 2 -11 -5 26.16 9.21
 1 -11 -5 179.34 9.96
 0 -11 -5 21.98 9.76
 -1 -11 -5 110.28 8.69
 -2 -11 -5 37.88 5.44
 -3 -11 -5 -0.58 10.7
 -4 -11 -5 8.91 12.07
 -5 -11 -5 -0.1 12.61
 -5 -10 -5 37.16 12.94
 -4 -10 -5 7.07 10.97
 -3 -10 -5 5.76 10.2
 -2 -10 -5 7.28 9.66
 -1 -10 -5 147.1 9.35
 0 -10 -5 64.55 6.53
 1 -10 -5 2.3 7.85
 2 -10 -5 246.99 10.77
 3 -10 -5 171.38 9.4
 4 -10 -5 1288.64 23.96
 5 -10 -5 226.45 10.44
 6 -10 -5 540.95 15.81
 7 -10 -5 166.33 9.49
 8 -10 -5 777.73 19.51
 9 -10 -5 28.79 9.61
 10 -10 -5 145.54 9.46
 11 -10 -5 5.69 10.11
 12 -10 -5 44.39 6.42
 13 -10 -5 162.81 11.11
 14 -10 -5 1.41 12.86
 14 -9 -5 51.81 7.45
 13 -9 -5 48.21 6.73
 12 -9 -5 54.52 7.29
 11 -9 -5 151.95 9.91
 10 -9 -5 10.95 9.42
 9 -9 -5 439.29 14.85
 8 -9 -5 206.79 10.57
 7 -9 -5 746.98 18.34
 6 -9 -5 535.96 15.38
 5 -9 -5 210.62 9.72
 4 -9 -5 548.55 15.25
 3 -9 -5 264.73 10.75
 2 -9 -5 620.76 16.01
 1 -9 -5 4.97 7.22
 0 -9 -5 6.87 7.68
 -1 -9 -5 99.26 7.7
 -2 -9 -5 206.79 11.14
 -3 -9 -5 181.34 10.86
 -4 -9 -5 11.88 10.55
 -5 -9 -5 38.04 6.24
 -6 -9 -5 2.19 12.35
 -7 -8 -5 2.35 12.46
 -6 -8 -5 76.97 8.31
 -5 -8 -5 12.15 10.63
 -4 -8 -5 328.8 14.16
 -3 -8 -5 14.61 9.28
 -2 -8 -5 575.32 16.86
 -1 -8 -5 2.43 7.43
 0 -8 -5 5.92 6.92
 1 -8 -5 -0.56 6.77
 2 -8 -5 216.6 9.39
 3 -8 -5 149.85 7.95
 4 -8 -5 419.84 12.62
 5 -8 -5 512.99 14.03
 6 -8 -5 107.78 7.2
 7 -8 -5 940.82 19.91
 8 -8 -5 943.81 20.57
 9 -8 -5 484.64 15.5
 10 -8 -5 191.73 10.3
 11 -8 -5 133.42 9.17
 12 -8 -5 315.17 14.15
 13 -8 -5 11.97 11.5
 14 -8 -5 27.7 13.03
 14 -7 -5 2.8 12.13
 13 -7 -5 84.85 8.37
 12 -7 -5 57.23 6.72
 11 -7 -5 64.39 6.99
 10 -7 -5 866.75 20.74
 9 -7 -5 1.92 7.81
 8 -7 -5 1571.9 25.64
 7 -7 -5 331.19 11.97
 6 -7 -5 1334.09 22.02
 5 -7 -5 127.3 7.18
 4 -7 -5 472.92 12.93
 3 -7 -5 1.23 5.99
 2 -7 -5 585.25 14.58
 1 -7 -5 180.57 8.6
 0 -7 -5 5.01 6.58
 -1 -7 -5 199.39 9.44
 -2 -7 -5 -0.9 7.74
 -3 -7 -5 660.3 18.36
 -4 -7 -5 70.23 7.25
 -5 -7 -5 216.96 11.54
 -6 -7 -5 -3.98 10.99
 -7 -7 -5 40.79 6.53
 -8 -6 -5 -1.64 12.24
 -7 -6 -5 11.18 11.38
 -6 -6 -5 45.13 6.19
 -5 -6 -5 16.33 9.55
 -4 -6 -5 280.88 12.15
 -3 -6 -5 203.78 10.21
 -2 -6 -5 993.33 20.15
 -1 -6 -5 130.19 7.52
 0 -6 -5 1714.84 24.25
 1 -6 -5 30.3 4.8
 2 -6 -5 2642.19 28.83
 3 -6 -5 13.04 5.63
 4 -6 -5 90.57 5.78
 5 -6 -5 64.91 5.31
 6 -6 -5 352.48 11.35
 7 -6 -5 2199.69 28.91
 8 -6 -5 110.12 7.46
 9 -6 -5 716.5 17.84
 10 -6 -5 39.95 5.84
 11 -6 -5 843.96 21.59
 12 -6 -5 33.45 5.44
 13 -6 -5 153.89 10.54
 14 -6 -5 -0.45 12.25
 14 -5 -5 107.06 9.66
 13 -5 -5 75.21 7.97
 12 -5 -5 232.01 12.29
 11 -5 -5 85.33 7.77
 10 -5 -5 989.28 21.75
 9 -5 -5 1626.91 25.98
 8 -5 -5 91.61 6.91
 7 -5 -5 1115.63 19.79
 6 -5 -5 351.57 10.96
 5 -5 -5 841.83 16.06
 4 -5 -5 13.63 5.53
 3 -5 -5 -0.47 5.32
 2 -5 -5 600.47 13.28
 1 -5 -5 1721.62 22.82
 0 -5 -5 1622.39 22.86
 -1 -5 -5 261.14 9.95
 -2 -5 -5 828.85 17.69
 -3 -5 -5 289.47 11.76
 -4 -5 -5 611.49 17.01
 -5 -5 -5 -1.8 8.55
 -6 -5 -5 53.57 6.12
 -7 -5 -5 10.86 10.54
 -8 -5 -5 9.43 11.89
 -9 -5 -5 37.98 14.01
 -9 -4 -5 6.19 12.17
 -8 -4 -5 10.75 11.17
 -7 -4 -5 58.17 6.53
 -6 -4 -5 28.83 4.77
 -5 -4 -5 187.27 10.28
 -4 -4 -5 46.25 5.84
 -3 -4 -5 1346.61 22.67
 -2 -4 -5 109.13 7.01
 -1 -4 -5 2132.06 26.11
 0 -4 -5 349.94 10.59
 1 -4 -5 2720.02 27.4
 2 -4 -5 -2.07 4.8
 3 -4 -5 229.07 8.03
 4 -4 -5 847.88 15.25
 5 -4 -5 44.03 4.46
 6 -4 -5 1161.95 19.05
 7 -4 -5 23.12 3.76
 8 -4 -5 379.58 12.3
 9 -4 -5 66.08 6.36
 10 -4 -5 988.35 21.45
 11 -4 -5 579.86 17.42
 12 -4 -5 217.15 11.69
 13 -4 -5 69.26 8.04
 14 -4 -5 71.9 7.96
 14 -3 -5 59.74 7.99
 13 -3 -5 853.99 23.69
 12 -3 -5 12.26 10.11
 11 -3 -5 640.41 18.3
 10 -3 -5 406.49 13.88
 9 -3 -5 1355.8 23.64
 8 -3 -5 368.64 11.88
 7 -3 -5 121.56 6.86
 6 -3 -5 4.78 5.56
 5 -3 -5 1300.43 18.86
 4 -3 -5 2515.49 25.17
 3 -3 -5 110.35 5.66
 2 -3 -5 2721.76 25.89
 1 -3 -5 62.04 4.64
 0 -3 -5 5114.84 37.26
 -1 -3 -5 44.35 4.7
 -2 -3 -5 1326.02 20.65
 -3 -3 -5 0.04 6.36
 -4 -3 -5 433.58 13.4
 -5 -3 -5 331.21 12.61
 -6 -3 -5 6.69 8.48
 -7 -3 -5 11.98 9.6
 -8 -3 -5 1.85 10.49
 -9 -3 -5 86.36 9.18
 -10 -2 -5 39.26 14
 -9 -2 -5 15.02 11.84
 -8 -2 -5 35.43 5.53
 -7 -2 -5 33.38 5.47
 -6 -2 -5 195.3 10.1
 -5 -2 -5 -3.32 7.64
 -4 -2 -5 58.98 5.34
 -3 -2 -5 524.34 13.47
 -2 -2 -5 127.06 6.59
 -1 -2 -5 980.97 16.49
 0 -2 -5 707.88 13.44
 1 -2 -5 1805.97 20.8
 2 -2 -5 -0.18 4.41
 3 -2 -5 5428.1 35.61
 4 -2 -5 90.37 5.37
 5 -2 -5 2393.58 25.28
 6 -2 -5 138.91 6.9
 7 -2 -5 661.54 14.7
 8 -2 -5 573.34 14.61
 9 -2 -5 88.93 7.03
 10 -2 -5 603.08 16.81
 11 -2 -5 4.2 8.79
 12 -2 -5 520.85 17.42
 13 -2 -5 22.57 11.96
 14 -2 -5 338.98 16.12
 14 -1 -5 -3.26 12.5
 13 -1 -5 514.76 18.66
 12 -1 -5 138.89 9.63
 11 -1 -5 118.86 8.56
 10 -1 -5 158.29 9.12
 9 -1 -5 770.51 18.11
 8 -1 -5 521.01 14.23
 7 -1 -5 244.19 9.3
 6 -1 -5 1436.26 20.21
 5 -1 -5 19.14 3.51
 4 -1 -5 5033.42 34.55
 3 -1 -5 1988.63 21.29
 2 -1 -5 2563.89 23.62
 1 -1 -5 1583.99 18.71
 0 -1 -5 1863.24 20.95
 -1 -1 -5 1520.52 20.14
 -2 -1 -5 95.95 5.71
 -3 -1 -5 9.14 5.65
 -4 -1 -5 229.6 9.41
 -5 -1 -5 348.16 12.1
 -6 -1 -5 90.91 7.34
 -7 -1 -5 16.9 9.32
 -8 -1 -5 73.87 7.36
 -9 -1 -5 35.52 11.88
 -10 -1 -5 67.22 8
 -10 0 -5 -0.34 11.79
 -9 0 -5 117.39 9.69
 -8 0 -5 4.26 9.33
 -7 0 -5 514.78 16.25
 -6 0 -5 274.3 11.54
 -5 0 -5 310.34 11.22
 -4 0 -5 1.94 5.89
 -3 0 -5 161.99 7.41
 -2 0 -5 673.24 13.57
 -1 0 -5 136.97 6.08
 0 0 -5 2093.21 21.72
 1 0 -5 797.26 13.01
 2 0 -5 5923.27 35.36
 3 0 -5 2310.14 22.76
 4 0 -5 3742.58 29.78
 5 0 -5 2692.44 26.28
 6 0 -5 527.59 12.38
 7 0 -5 738.77 15.62
 8 0 -5 49.24 5.42
 9 0 -5 1337.39 23.44
 10 0 -5 3.45 7.8
 11 0 -5 304.03 12.66
 12 0 -5 267.55 13.19
 13 0 -5 209.27 12.76
 14 0 -5 110.37 10.05
 14 1 -5 28.85 13.38
 13 1 -5 32.6 12.49
 12 1 -5 424.95 16.4
 11 1 -5 5.75 9.21
 10 1 -5 55.37 5.79
 9 1 -5 238.64 10.73
 8 1 -5 924.57 18.82
 7 1 -5 2393.03 28.32
 6 1 -5 268.98 9.2
 5 1 -5 1871.59 22.28
 4 1 -5 433.11 10.43
 3 1 -5 5500.3 34.5
 2 1 -5 86.39 4.8
 1 1 -5 571.66 10.96
 0 1 -5 301.99 8.17
 -1 1 -5 378.85 9.54
 -2 1 -5 755.32 14.04
 -3 1 -5 18.38 3.36
 -4 1 -5 244.31 9.23
 -5 1 -5 6.92 6.75
 -6 1 -5 651.5 16.93
 -7 1 -5 22.58 8.81
 -8 1 -5 355.25 14.68
 -9 1 -5 -0.61 10.26
 -10 1 -5 35.99 12.48
 -11 1 -5 16.34 13.37
 -11 2 -5 -1.56 12.41
 -10 2 -5 3.38 10.95
 -9 2 -5 59.92 6.64
 -8 2 -5 79.17 7.42
 -7 2 -5 89.19 7.68
 -6 2 -5 6.93 7.44
 -5 2 -5 492.5 13.86
 -4 2 -5 158.34 7.73
 -3 2 -5 1218.06 18.79
 -2 2 -5 621.77 12.74
 -1 2 -5 514.9 10.9
 0 2 -5 193.09 6.62
 1 2 -5 408.26 9.29
 2 2 -5 764.97 12.8
 3 2 -5 240.68 7.61
 4 2 -5 380.69 9.73
 5 2 -5 30.34 3.5
 6 2 -5 2118.48 25.46
 7 2 -5 13.77 6.8
 8 2 -5 539.46 14.48
 9 2 -5 107.21 7.42
 10 2 -5 82.49 7.05
 11 2 -5 101.88 8.44
 12 2 -5 -3.06 10.96
 13 2 -5 72.63 8.22
 13 3 -5 2.36 11.82
 12 3 -5 87.46 8.42
 11 3 -5 181.48 10.71
 10 3 -5 2.45 8.55
 9 3 -5 501.9 15.39
 8 3 -5 -1.27 7.13
 7 3 -5 2254.28 29.04
 6 3 -5 755.32 15.61
 5 3 -5 641.83 13.58
 4 3 -5 570.53 12.06
 3 3 -5 1251.91 16.95
 2 3 -5 1348.79 17.17
 1 3 -5 11.56 4.1
 0 3 -5 741.98 12.73
 -1 3 -5 114.88 5.52
 -2 3 -5 3941.42 31.85
 -3 3 -5 359.92 10.56
 -4 3 -5 820.95 16.22
 -5 3 -5 561.93 14.27
 -6 3 -5 532.98 14.9
 -7 3 -5 190.58 10.23
 -8 3 -5 13.81 9.44
 -9 3 -5 41.47 5.78
 -10 3 -5 1.16 10.74
 -11 3 -5 19.04 12.57
 -11 4 -5 13.82 12.47
 -10 4 -5 5.92 10.6
 -9 4 -5 33.08 5.39
 -8 4 -5 265.04 12.41
 -7 4 -5 15.64 8.5
 -6 4 -5 662.8 16.33
 -5 4 -5 18.83 6.68
 -4 4 -5 1426.09 21.6
 -3 4 -5 672.57 13.91
 -2 4 -5 903.28 15.31
 -1 4 -5 5.27 4.27
 0 4 -5 231.47 7.51
 1 4 -5 1083.18 15.45
 2 4 -5 43.93 3.76
 3 4 -5 496.43 11.1
 4 4 -5 -4.93 4.94
 5 4 -5 1503.65 21.13
 6 4 -5 820.3 16.74
 7 4 -5 698.91 16.66
 8 4 -5 704.01 17.24
 9 4 -5 364.61 13.66
 10 4 -5 638.09 18.89
 11 4 -5 21.74 10.75
 12 4 -5 91.9 8.62
 13 4 -5 4.33 12.32
 12 5 -5 36.84 12.39
 11 5 -5 150.46 10.89
 10 5 -5 522.59 17.74
 9 5 -5 62.12 6.79
 8 5 -5 559.76 15.94
 7 5 -5 343.42 12.04
 6 5 -5 783.59 16.77
 5 5 -5 -1.23 5.76
 4 5 -5 126.19 6.54
 3 5 -5 189.14 7.28
 2 5 -5 796.32 13.94
 1 5 -5 675.96 12.72
 0 5 -5 111.37 5.48
 -1 5 -5 797.52 13.98
 -2 5 -5 5.36 4.85
 -3 5 -5 1626.37 22.04
 -4 5 -5 22.06 4.49
 -5 5 -5 889.09 18.31
 -6 5 -5 11.38 7.3
 -7 5 -5 30.15 4.51
 -8 5 -5 274.52 12.49
 -9 5 -5 -0.97 9.81
 -10 5 -5 26.4 11.59
 -11 5 -5 -0.39 11.6
 -11 6 -5 35.1 12.68
 -10 6 -5 9.35 11.15
 -9 6 -5 154.44 10.02
 -8 6 -5 1.08 8.45
 -7 6 -5 1.02 7.74
 -6 6 -5 93.98 6.62
 -5 6 -5 21.45 4.02
 -4 6 -5 1380.66 21.52
 -3 6 -5 30.59 4.19
 -2 6 -5 1408.77 19.79
 -1 6 -5 84.43 5.23
 0 6 -5 3010.66 27.77
 1 6 -5 186.5 7.32
 2 6 -5 483.55 11.44
 3 6 -5 20.11 3.3
 4 6 -5 111.86 6.62
 5 6 -5 890.56 17.39
 6 6 -5 118.69 7.36
 7 6 -5 674.2 16.93
 8 6 -5 18.73 8.52
 9 6 -5 540.1 16.97
 10 6 -5 50.14 6.82
 11 6 -5 213.75 12.81
 12 6 -5 0.47 12.15
 12 7 -5 125 10.26
 11 7 -5 -0.38 11.88
 10 7 -5 563.25 18.95
 9 7 -5 5.68 9.53
 8 7 -5 208.26 10.67
 7 7 -5 92.02 6.89
 6 7 -5 154.04 8.4
 5 7 -5 210.42 9.55
 4 7 -5 65.48 5.74
 3 7 -5 767.44 15.35
 2 7 -5 115 6.3
 1 7 -5 1561.17 21.05
 0 7 -5 394.03 10.74
 -1 7 -5 2915.67 28.88
 -2 7 -5 60.24 4.79
 -3 7 -5 545.78 13.24
 -4 7 -5 425.75 12.29
 -5 7 -5 86.03 6.4
 -6 7 -5 125.65 8.18
 -7 7 -5 11.03 7.89
 -8 7 -5 25.02 9.05
 -9 7 -5 74.83 7.41
 -10 7 -5 27.38 11.63
 -11 7 -5 41.95 6.97
 -11 8 -5 5.62 11.87
 -10 8 -5 98.83 9.03
 -9 8 -5 40.52 5.91
 -8 8 -5 30.68 4.83
 -7 8 -5 100.27 7.55
 -6 8 -5 240.31 10.8
 -5 8 -5 306.67 11.09
 -4 8 -5 -0.34 6.11
 -3 8 -5 193.46 8.42
 -2 8 -5 251.86 9.14
 -1 8 -5 936.3 16.91
 0 8 -5 1570.08 21.83
 1 8 -5 908.07 16.65
 2 8 -5 1692.14 22.97
 3 8 -5 899.35 17.37
 4 8 -5 1091.63 20.15
 5 8 -5 -0.53 7
 6 8 -5 378.25 12.97
 7 8 -5 -0.99 8.44
 8 8 -5 231.76 11.47
 9 8 -5 202.45 11.49
 10 8 -5 6.93 11.42
 11 8 -5 108.48 9.87
 11 9 -5 51.31 7.41
 10 9 -5 31.5 12.45
 9 9 -5 23.4 10.97
 8 9 -5 1.3 9.39
 7 9 -5 77.8 7.04
 6 9 -5 79.33 7.11
 5 9 -5 718.29 17.4
 4 9 -5 188.06 9.39
 3 9 -5 737.07 16.57
 2 9 -5 944.72 18.24
 1 9 -5 161.99 7.93
 0 9 -5 1635.51 22.98
 -1 9 -5 331.95 10.91
 -2 9 -5 163.42 7.86
 -3 9 -5 2.09 6.08
 -4 9 -5 119.28 7.31
 -5 9 -5 34.86 4.79
 -6 9 -5 -4.86 7.9
 -7 9 -5 395.09 14.43
 -8 9 -5 -1.28 9.07
 -9 9 -5 192.75 11.58
 -10 9 -5 2.15 10.77
 -11 9 -5 125.81 10.29
 -11 10 -5 24.87 12.58
 -10 10 -5 82.09 8.63
 -9 10 -5 0.61 10.16
 -8 10 -5 312.46 13.53
 -7 10 -5 13.38 8.9
 -6 10 -5 466.35 14.85
 -5 10 -5 2.26 7.12
 -4 10 -5 74.67 6.04
 -3 10 -5 3.07 6.56
 -2 10 -5 39.18 4.79
 -1 10 -5 901.08 17.98
 0 10 -5 290.08 10.64
 1 10 -5 112.47 6.97
 2 10 -5 5.67 6.88
 3 10 -5 929.41 19.52
 4 10 -5 19.38 8.17
 5 10 -5 254.05 11.3
 6 10 -5 -4.53 8.73
 7 10 -5 11.64 9.59
 8 10 -5 32.4 5.81
 9 10 -5 6.04 11.19
 10 10 -5 25.97 13.07
 9 11 -5 15.91 11.94
 8 11 -5 19.91 11.47
 7 11 -5 5.47 10.23
 6 11 -5 150.43 9.76
 5 11 -5 18.81 9.11
 4 11 -5 573.81 16.65
 3 11 -5 7.44 8.13
 2 11 -5 865.8 19.21
 1 11 -5 3.02 6.83
 0 11 -5 52.37 5.7
 -1 11 -5 94.2 6.97
 -2 11 -5 25.63 4.56
 -3 11 -5 138.48 7.98
 -4 11 -5 93.97 6.96
 -5 11 -5 61.53 5.95
 -6 11 -5 109.42 8.11
 -7 11 -5 364.75 14.72
 -8 11 -5 56.57 6.67
 -9 11 -5 115.74 9.46
 -10 11 -5 3.81 11.57
 -11 11 -5 5.18 12.4
 -11 12 -5 27.72 13.09
 -10 12 -5 9.44 11.49
 -9 12 -5 98.91 8.87
 -8 12 -5 30.65 10.73
 -7 12 -5 185.09 10.83
 -6 12 -5 27.63 9.37
 -5 12 -5 64.46 6.36
 -4 12 -5 52.2 5.43
 -3 12 -5 209.35 10.03
 -2 12 -5 92.12 7
 -1 12 -5 2.21 7.29
 0 12 -5 21.87 7.73
 1 12 -5 183.08 9.31
 2 12 -5 185.79 9.75
 3 12 -5 499.49 15.57
 4 12 -5 80.71 7.29
 5 12 -5 178.29 10.47
 6 12 -5 26.86 10.92
 7 12 -5 158.57 10.86
 8 12 -5 0.1 11.75
 -9 -12 5 17.28 12.96
 -8 -13 5 45.36 7.12
 -7 -13 5 72.5 8.36
 6 13 -5 142.86 10.58
 5 13 -5 277.98 13.46
 4 13 -5 78.24 7.69
 3 13 -5 169.66 10.24
 2 13 -5 49.03 6.01
 1 13 -5 163.36 9.18
 0 13 -5 -0.27 7.79
 -1 13 -5 57.18 6.04
 -2 13 -5 76.71 6.8
 -3 13 -5 122.81 8.2
 -4 13 -5 454.36 15.24
 -5 13 -5 19.61 9.25
 -6 13 -5 219.69 11.57
 -7 13 -5 -2.06 9.87
 -8 13 -5 191.37 11.43
 -9 13 -5 -3.2 11.39
 -10 13 -5 34.73 12.74
 -10 14 -5 1.93 12.18
 -9 14 -5 16.19 11.82
 -8 14 -5 3.55 10.98
 -7 14 -5 148.64 10.39
 -6 14 -5 15.82 9.9
 -5 14 -5 391.84 14.92
 -4 14 -5 -2.9 9.58
 -3 14 -5 435.14 15.28
 -2 14 -5 -4.13 8.7
 -1 14 -5 30.24 4.85
 0 14 -5 8.82 8.65
 1 14 -5 13.96 9.26
 2 14 -5 45.55 6.18
 3 14 -5 3.39 9.44
 4 14 -5 196.25 11.4
 5 14 -5 -3.24 11.03
 -6 -14 5 129.1 10.51
 -7 -14 5 16.54 13.24
 -6 -15 5 -2.4 12.9
 -5 -15 5 21.67 12.14
 4 15 -5 14.07 11.16
 3 15 -5 0.27 10.32
 2 15 -5 19.68 10.38
 1 15 -5 0.86 9.5
 0 15 -5 141.19 9.43
 -1 15 -5 24.84 9.85
 -2 15 -5 211.58 11.23
 -3 15 -5 19.62 9.9
 -4 15 -5 463.82 16.6
 -5 15 -5 33.01 6.14
 -6 15 -5 178.47 11.06
 -7 15 -5 21.05 11.31
 -8 15 -5 28.25 12.01
 -9 15 -5 6.53 11.96
 -10 15 -5 1.1 12.61
 -9 16 -5 2.43 12.23
 -8 16 -5 21.29 12.38
 -7 16 -5 16.81 11.73
 -6 16 -5 47.6 6.9
 -5 16 -5 138.43 10.34
 -4 16 -5 78.15 8.13
 -3 16 -5 163.57 10.81
 -2 16 -5 65.73 7.49
 -1 16 -5 64.82 7.26
 0 16 -5 8.5 10.11
 1 16 -5 82.91 8.27
 2 16 -5 -5.62 10.88
 -3 -16 5 4.21 11.15
 -4 -16 5 16.25 12.1
 -5 -16 5 11.21 12.45
 -4 -17 5 34.62 13.71
 -3 -17 5 -2.23 12.2
 -2 -17 5 13.83 11.89
 -1 -17 5 33.41 12.49
 0 17 -5 90.41 8.82
 -1 17 -5 140.29 10.69
 -2 17 -5 33.17 11.71
 -3 17 -5 111.79 9.36
 -4 17 -5 25.39 11.52
 -5 17 -5 38.36 7.11
 -6 17 -5 -2.99 11.7
 -7 17 -5 17.58 12.27
 -8 17 -5 4.61 12.16
 -7 18 -5 7.58 12.54
 -6 18 -5 4.4 12.3
 -5 18 -5 -0.11 12.02
 -4 18 -5 49.55 6.97
 -3 18 -5 -3.9 11.62
 -2 18 -5 85.56 8.67
 -1 18 -5 18.47 12
 0 -18 5 51.75 7.2
 -1 -18 5 8.6 12.55
 -2 -18 5 16.39 12.97
 0 -19 5 0.22 12.74
 1 -19 5 13.73 12.94
 2 -19 5 2 12.2
 -3 19 -5 5.45 12.24
 -4 19 -5 12.09 12.57
 -5 19 -5 4 12.43
 -4 19 -6 3.3 12.98
 -3 19 -6 9.82 13
 -2 19 -6 3.45 12.64
 -1 19 -6 19.34 13.26
 2 18 -6 12.96 13.03
 1 18 -6 6.46 12.49
 0 18 -6 71.87 8.54
 -1 18 -6 3.6 12.16
 -2 18 -6 72.41 8.57
 -3 18 -6 0.67 12.07
 -4 18 -6 50.77 7.47
 -5 18 -6 -5.36 12.65
 -6 18 -6 8.34 12.78
 -7 17 -6 11.95 12.58
 -6 17 -6 -4.83 12.35
 -5 17 -6 45.86 6.66
 -4 17 -6 12.43 11.54
 -3 17 -6 89.73 8.85
 -2 17 -6 2.94 11.46
 -1 17 -6 41.08 6.68
 0 17 -6 27.56 11.89
 1 17 -6 31.26 12.38
 2 17 -6 4.73 11.77
 3 17 -6 1.52 12.05
 4 17 -6 39.41 13.87
 5 16 -6 15.11 13.24
 4 16 -6 8.29 12.13
 3 16 -6 17.8 11.73
 2 16 -6 -2.23 11.11
 1 16 -6 47.12 6.38
 0 16 -6 5.33 10.32
 -1 16 -6 21.74 10.68
 -2 16 -6 26.07 10.98
 -3 16 -6 54.07 7.32
 -4 16 -6 78.47 7.96
 -5 16 -6 30.29 11.79
 -6 16 -6 20.68 11.93
 -7 16 -6 9.1 11.97
 -8 16 -6 11.98 12.82
 -9 15 -6 18 13.09
 -8 15 -6 16.14 12.18
 -7 15 -6 16.1 11.99
 -6 15 -6 40.76 6.18
 -5 15 -6 16.84 10.7
 -4 15 -6 96.78 8.36
 -3 15 -6 32.05 10.75
 -2 15 -6 53.74 6.36
 -1 15 -6 -1.1 9.58
 0 15 -6 16.72 9.99
 1 15 -6 18.9 10.17
 2 15 -6 7.3 10.22
 3 15 -6 32.39 11.52
 4 15 -6 6.81 11.24
 5 15 -6 41 6.9
 6 15 -6 -9.31 12.93
 7 14 -6 33.82 13.43
 6 14 -6 96.87 9.46
 5 14 -6 -0.19 11.11
 4 14 -6 228.61 12.36
 3 14 -6 7.92 10.05
 2 14 -6 266.1 12.67
 1 14 -6 0 9.2
 0 14 -6 27.4 9.68
 -1 14 -6 4.18 8.84
 -2 14 -6 0.08 8.73
 -3 14 -6 40.5 5.51
 -4 14 -6 2.81 9.22
 -5 14 -6 28.01 5.2
 -6 14 -6 -2 10.35
 -7 14 -6 96.41 8.67
 -8 14 -6 9.09 11.78
 -9 14 -6 21.02 12.88
 -10 13 -6 8.28 12.88
 -9 13 -6 -0.85 12.19
 -8 13 -6 92.1 8.72
 -7 13 -6 -8.91 10.73
 -6 13 -6 79.31 7.57
 -5 13 -6 19.76 9.68
 -4 13 -6 7.31 8.89
 -3 13 -6 24.87 8.89
 -2 13 -6 -2.7 8.49
 -1 13 -6 137.75 8.76
 0 13 -6 -2.98 8.52
 1 13 -6 254.05 11.55
 2 13 -6 162.42 9.35
 3 13 -6 473.37 16.46
 4 13 -6 84.66 7.85
 5 13 -6 191.55 11.46
 6 13 -6 22.18 11.42
 7 13 -6 15.26 11.63
 8 13 -6 23.31 13.41
 9 12 -6 3.98 12.58
 8 12 -6 2.74 11.85
 7 12 -6 22.77 11.28
 6 12 -6 41.37 6.07
 5 12 -6 143.67 9.46
 4 12 -6 91.64 7.98
 3 12 -6 392.81 14.35
 2 12 -6 199.35 10.01
 1 12 -6 70.11 6.67
 0 12 -6 97.69 7.21
 -1 12 -6 28.77 5.21
 -2 12 -6 35.29 5.02
 -3 12 -6 3.76 7.84
 -4 12 -6 93.4 7.36
 -5 12 -6 3.8 8.89
 -6 12 -6 9.44 9.39
 -7 12 -6 188.66 11.63
 -8 12 -6 9.81 10.76
 -9 12 -6 34.71 12.54
 -10 12 -6 -1.78 12.74
 -10 11 -6 6.18 12.36
 -9 11 -6 39.16 6.72
 -8 11 -6 8.3 10.48
 -7 11 -6 116.66 8.58
 -6 11 -6 85.32 7.58
 -5 11 -6 84.79 7.21
 -4 11 -6 5.12 7.89
 -3 11 -6 167.84 9.11
 -2 11 -6 319.27 12.07
 -1 11 -6 561.8 15.69
 0 11 -6 121.49 7.82
 1 11 -6 267.07 11.07
 2 11 -6 439.72 14.16
 3 11 -6 385.19 13.65
 4 11 -6 370.13 13.64
 5 11 -6 6.84 9.12
 6 11 -6 122.21 8.87
 7 11 -6 5.88 10.16
 8 11 -6 17.78 11.52
 9 11 -6 54.61 7.58
 10 10 -6 116.25 10.4
 9 10 -6 -1.5 11.54
 8 10 -6 63.69 7.46
 7 10 -6 51.8 6.27
 6 10 -6 2.34 8.78
 5 10 -6 173.02 9.73
 4 10 -6 5.5 7.85
 3 10 -6 737.07 17.76
 2 10 -6 45.12 5.53
 1 10 -6 872.04 18.72
 0 10 -6 128.3 7.86
 -1 10 -6 2448.24 31.47
 -2 10 -6 4.43 7.02
 -3 10 -6 221.38 9.68
 -4 10 -6 165.95 9.06
 -5 10 -6 6.36 8.06
 -6 10 -6 154.53 9.41
 -7 10 -6 1.8 9.15
 -8 10 -6 54.82 6.81
 -9 10 -6 -3.24 11.16
 -10 10 -6 50.22 7.91
 -11 9 -6 42.08 7.49
 -10 9 -6 -1.06 11.87
 -9 9 -6 77.7 7.7
 -8 9 -6 0.81 9.76
 -7 9 -6 10.36 9.36
 -6 9 -6 35.72 4.88
 -5 9 -6 12.23 8.04
 -4 9 -6 340.81 12.42
 -3 9 -6 6.76 6.97
 -2 9 -6 548.1 14.61
 -1 9 -6 396.22 12.67
 0 9 -6 1738.54 25.09
 1 9 -6 518.4 13.84
 2 9 -6 308.98 11.09
 3 9 -6 343.95 11.95
 4 9 -6 107.01 7.34
 5 9 -6 498.46 15.31
 6 9 -6 10.49 8.61
 7 9 -6 201.95 10.72
 8 9 -6 2.52 9.99
 9 9 -6 131.41 9.81
 10 9 -6 52.39 7.57
 11 9 -6 105.27 9.87
 11 8 -6 102.98 9.83
 10 8 -6 107.41 9.75
 9 8 -6 170.04 10.86
 8 8 -6 319.94 13.81
 7 8 -6 52.89 6.16
 6 8 -6 216.04 10.35
 5 8 -6 2.32 7.26
 4 8 -6 107.25 7.24
 3 8 -6 655.69 15.59
 2 8 -6 405.26 12.13
 1 8 -6 1048.23 18.95
 0 8 -6 684.3 15.37
 -1 8 -6 1702.57 24.07
 -2 8 -6 73.22 5.96
 -3 8 -6 611.38 15.44
 -4 8 -6 46.29 5.67
 -5 8 -6 174.98 9.03
 -6 8 -6 -1.06 7.93
 -7 8 -6 6.52 8.81
 -8 8 -6 14.84 9.85
 -9 8 -6 -4.71 10.91
 -10 8 -6 60.06 7.81
 -11 8 -6 -0.39 12.68
 -11 7 -6 26.07 13.41
 -10 7 -6 4.97 11.88
 -9 7 -6 45.38 6.72
 -8 7 -6 29.47 5.48
 -7 7 -6 -0.13 8.52
 -6 7 -6 74.27 6.44
 -5 7 -6 103.58 7.37
 -4 7 -6 561.13 15.4
 -3 7 -6 526.11 14.05
 -2 7 -6 550.65 13.93
 -1 7 -6 465.21 12.52
 0 7 -6 902.75 16.83
 1 7 -6 974.39 17.58
 2 7 -6 147.54 7.37
 3 7 -6 80.6 5.62
 4 7 -6 24.23 4.07
 5 7 -6 14.86 7.09
 6 7 -6 394.86 13.27
 7 7 -6 32.45 5.05
 8 7 -6 256.21 12.09
 9 7 -6 98 8.43
 10 7 -6 482.34 17.95
 11 7 -6 7.78 11.88
 12 7 -6 48.33 7.1
 12 6 -6 2.87 12.27
 11 6 -6 188.78 11.98
 10 6 -6 3.2 10.3
 9 6 -6 518.43 17.05
 8 6 -6 3.5 8.48
 7 6 -6 807.68 18.95
 6 6 -6 2.04 7.02
 5 6 -6 478.89 13.5
 4 6 -6 27.75 3.98
 3 6 -6 207.83 8.35
 2 6 -6 154.25 7.24
 1 6 -6 -0.42 5.22
 0 6 -6 318.63 9.91
 -1 6 -6 384 10.92
 -2 6 -6 1044.3 18.47
 -3 6 -6 165.94 8.34
 -4 6 -6 1160.27 21.54
 -5 6 -6 403.42 13.63
 -6 6 -6 450.92 14.78
 -7 6 -6 37.67 5.31
 -8 6 -6 8.93 9.59
 -9 6 -6 51.17 6.7
 -10 6 -6 -1.05 11.55
 -11 6 -6 4.04 12.77
 -11 5 -6 -2.1 12.8
 -10 5 -6 3.87 11.41
 -9 5 -6 12.46 10.69
 -8 5 -6 114.38 8.83
 -7 5 -6 96.36 8.08
 -6 5 -6 -1.08 8.16
 -5 5 -6 604.32 15.85
 -4 5 -6 25.09 4.35
 -3 5 -6 1615.46 23.66
 -2 5 -6 2.06 5.66
 -1 5 -6 608.56 13.52
 0 5 -6 32.97 3.68
 1 5 -6 630.5 13.31
 2 5 -6 295.78 9.31
 3 5 -6 17.37 3.28
 4 5 -6 714.09 15.12
 5 5 -6 4.66 6.31
 6 5 -6 1713.51 25.51
 7 5 -6 158.62 8.82
 8 5 -6 555.99 16.27
 9 5 -6 57.15 6.29
 10 5 -6 341.08 14.57
 11 5 -6 109.16 9.3
 12 5 -6 -0.4 12.04
 13 4 -6 12.87 12.81
 12 4 -6 65.45 7.98
 11 4 -6 -0.41 10.29
 10 4 -6 161.46 9.86
 9 4 -6 343.75 13.44
 8 4 -6 635.82 17.08
 7 4 -6 1206.61 22.25
 6 4 -6 796.47 17.02
 5 4 -6 1274.45 20.22
 4 4 -6 301.32 9.68
 3 4 -6 1363.5 19.67
 2 4 -6 73.75 5.1
 1 4 -6 236.18 8.19
 0 4 -6 14.86 5.07
 -1 4 -6 275.59 9
 -2 4 -6 810.18 15.97
 -3 4 -6 238.24 9.4
 -4 4 -6 540.96 14.6
 -5 4 -6 4.08 7.39
 -6 4 -6 342.89 13.23
 -7 4 -6 1.05 8.63
 -8 4 -6 252.75 12.78
 -9 4 -6 -10.93 10.97
 -10 4 -6 1.48 11.73
 -10 3 -6 5.46 11.84
 -9 3 -6 13.05 11.24
 -8 3 -6 22.61 10.53
 -7 3 -6 228.25 11.71
 -6 3 -6 693.74 18.64
 -5 3 -6 435.24 13.56
 -4 3 -6 154.75 7.98
 -3 3 -6 222.89 9.11
 -2 3 -6 1188.44 19.09
 -1 3 -6 39.66 3.98
 0 3 -6 310.6 9.17
 1 3 -6 2.55 4.48
 2 3 -6 1122.73 17.05
 3 3 -6 358.87 10.31
 4 3 -6 349.55 10.27
 5 3 -6 989.74 17.64
 6 3 -6 941.64 18.1
 7 3 -6 1137.01 21.16
 8 3 -6 -0.4 7.75
 9 3 -6 449.55 14.86
 10 3 -6 20.23 9.57
 11 3 -6 76.36 7.85
 12 3 -6 138.89 10.63
 13 3 -6 4.2 12.29
 13 2 -6 212.53 13.11
 12 2 -6 12.46 11.07
 11 2 -6 35.7 5.62
 10 2 -6 27.12 4.58
 9 2 -6 53.81 5.84
 8 2 -6 337.15 12.32
 7 2 -6 85.53 6.68
 6 2 -6 1999.78 25.89
 5 2 -6 113.06 6.45
 4 2 -6 1803.14 22.76
 3 2 -6 1462.2 19.75
 2 2 -6 1222.46 17.65
 1 2 -6 428.98 10.68
 0 2 -6 125.26 6.02
 -1 2 -6 375.74 10.51
 -2 2 -6 7.61 5.67
 -3 2 -6 159.75 7.78
 -4 2 -6 4.14 6.47
 -5 2 -6 590.75 16.18
 -6 2 -6 26.71 9.07
 -7 2 -6 86.38 8.12
 -8 2 -6 37.21 5.77
 -9 2 -6 39.5 6.55
 -10 2 -6 -0.48 12.37
 -10 1 -6 51.23 8.2
 -9 1 -6 -0.84 11.26
 -8 1 -6 120.03 9.45
 -7 1 -6 75.83 7.79
 -6 1 -6 555.51 16.94
 -5 1 -6 2.92 7.35
 -4 1 -6 242.29 9.79
 -3 1 -6 22.16 3.43
 -2 1 -6 451.24 12.22
 -1 1 -6 356.63 10.37
 0 1 -6 2.73 4.72
 1 1 -6 936.47 15.46
 2 1 -6 62.13 4.59
 3 1 -6 6889.96 42.56
 4 1 -6 296.09 9.58
 5 1 -6 1990.78 25.03
 6 1 -6 125.8 6.98
 7 1 -6 1406.37 22.43
 8 1 -6 618.74 16.1
 9 1 -6 258.2 11.26
 10 1 -6 121.35 8.42
 11 1 -6 20.29 9.73
 12 1 -6 463.43 17.04
 13 1 -6 -7.44 12.16
 14 1 -6 105.67 10.14
 14 0 -6 140.62 11.23
 13 0 -6 332.33 15.75
 12 0 -6 31.89 11.27
 11 0 -6 158.19 10.01
 10 0 -6 95.03 7.45
 9 0 -6 1998.57 29.64
 8 0 -6 42.29 5.2
 7 0 -6 305.56 10.88
 6 0 -6 376.17 11.24
 5 0 -6 1606.21 21.8
 4 0 -6 1447.08 20.12
 3 0 -6 873.9 15.24
 2 0 -6 1090.45 16.85
 1 0 -6 27.55 3.4
 0 0 -6 1786.49 22.5
 -1 0 -6 15.85 5.72
 -2 0 -6 613.73 14.24
 -3 0 -6 33.51 4.24
 -4 0 -6 98.99 6.97
 -5 0 -6 411.18 13.9
 -6 0 -6 3.08 8.43
 -7 0 -6 176.92 10.62
 -8 0 -6 4.65 10.44
 -9 0 -6 151.94 11.33
 -10 0 -6 -7.46 13.42
 -9 -1 -6 19.12 12.46
 -8 -1 -6 12.74 10.87
 -7 -1 -6 13.75 9.79
 -6 -1 -6 92.32 7.85
 -5 -1 -6 23.64 8.6
 -4 -1 -6 -1.65 7.26
 -3 -1 -6 201.44 9.1
 -2 -1 -6 36.1 4.3
 -1 -1 -6 1617.24 22.54
 0 -1 -6 963.25 16.8
 1 -1 -6 773.65 14.78
 2 -1 -6 434.67 10.9
 3 -1 -6 1463.85 19.88
 4 -1 -6 933.77 16.2
 5 -1 -6 147.69 7.05
 6 -1 -6 518.26 13.02
 7 -1 -6 40.74 4.77
 8 -1 -6 73.54 6.43
 9 -1 -6 651.48 16.97
 10 -1 -6 42.82 5.55
 11 -1 -6 214.95 11.25
 12 -1 -6 116.12 9.44
 13 -1 -6 218.76 13.01
 14 -1 -6 -1.16 12.84
 14 -2 -6 179.67 12.08
 13 -2 -6 31.13 12.16
 12 -2 -6 436.39 16.28
 11 -2 -6 1.63 9.22
 10 -2 -6 696.02 18.71
 9 -2 -6 112.66 7.73
 8 -2 -6 22.21 7.59
 7 -2 -6 8 6.53
 6 -2 -6 32.9 4.51
 5 -2 -6 1252.28 19.69
 4 -2 -6 43.55 4.64
 3 -2 -6 57.55 4.68
 2 -2 -6 343 10.07
 1 -2 -6 1850.83 23.3
 0 -2 -6 1010.74 17.94
 -1 -2 -6 710.34 15.43
 -2 -2 -6 677.75 15.54
 -3 -2 -6 98.26 6.88
 -4 -2 -6 267.4 11.32
 -5 -2 -6 13.63 8.54
 -6 -2 -6 59.38 6.3
 -7 -2 -6 -2.43 10.06
 -8 -2 -6 19.65 11.51
 -9 -2 -6 31.06 13.67
 -9 -3 -6 22.41 14.02
 -8 -3 -6 -0.46 11.45
 -7 -3 -6 19.76 11
 -6 -3 -6 7.27 9.59
 -5 -3 -6 138.1 9.34
 -4 -3 -6 183.61 10
 -3 -3 -6 55.67 5.83
 -2 -3 -6 486.66 13.8
 -1 -3 -6 359.48 11.48
 0 -3 -6 2247.53 27.29
 1 -3 -6 57.78 5.17
 2 -3 -6 682.77 14.34
 3 -3 -6 41.77 4.02
 4 -3 -6 115.55 6.36
 5 -3 -6 570.68 13.49
 6 -3 -6 1.43 6.22
 7 -3 -6 602.28 14.87
 8 -3 -6 155.99 8.46
 9 -3 -6 932.18 20.19
 10 -3 -6 11.18 8.81
 11 -3 -6 846.56 21.28
 12 -3 -6 40.75 6.03
 13 -3 -6 275.44 13.98
 14 -3 -6 14.52 12.41
 14 -4 -6 35.08 13.31
 13 -4 -6 33.58 6.09
 12 -4 -6 78.05 7.82
 11 -4 -6 271.63 12.7
 10 -4 -6 1049.37 22.73
 9 -4 -6 5.23 8.02
 8 -4 -6 1660.45 25.96
 7 -4 -6 435.93 13.26
 6 -4 -6 1537.99 23.3
 5 -4 -6 2.84 5.88
 4 -4 -6 140.42 7.15
 3 -4 -6 4.54 5.65
 2 -4 -6 608.41 14.17
 1 -4 -6 2196.72 27.33
 0 -4 -6 8.77 6.77
 -1 -4 -6 410.17 12.86
 -2 -4 -6 4.55 7.08
 -3 -4 -6 530.5 16.02
 -4 -4 -6 11 8.7
 -5 -4 -6 189.16 10.84
 -6 -4 -6 0.92 9.91
 -7 -4 -6 34.75 6.19
 -8 -4 -6 13.93 12.28
 -8 -5 -6 3.21 12.58
 -7 -5 -6 -6.28 11.76
 -6 -5 -6 30.14 11.23
 -5 -5 -6 6.4 9.54
 -4 -5 -6 451.25 15.66
 -3 -5 -6 74.99 6.98
 -2 -5 -6 228.9 10.6
 -1 -5 -6 5.55 6.88
 0 -5 -6 0.61 6.39
 1 -5 -6 781.44 16.72
 2 -5 -6 77.23 6.05
 3 -5 -6 65.52 5.3
 4 -5 -6 113.29 6.92
 5 -5 -6 800.27 16.68
 6 -5 -6 299.42 10.96
 7 -5 -6 725.64 16.87
 8 -5 -6 578.05 15.74
 9 -5 -6 448.69 14.57
 10 -5 -6 272.08 12.07
 11 -5 -6 123.51 9.08
 12 -5 -6 391.26 15.67
 13 -5 -6 -3.91 11.46
 14 -5 -6 134.86 10.64
 14 -6 -6 44.07 7.33
 13 -6 -6 19.1 12.09
 12 -6 -6 149.9 10.44
 11 -6 -6 375.1 15.03
 10 -6 -6 88.85 7.45
 9 -6 -6 449.56 14.8
 8 -6 -6 81.14 6.9
 7 -6 -6 2084 28.97
 6 -6 -6 445.65 13.36
 5 -6 -6 375.09 11.92
 4 -6 -6 466.83 13.22
 3 -6 -6 367.2 11.59
 2 -6 -6 491.12 13.62
 1 -6 -6 35.47 4.52
 0 -6 -6 14.91 7.14
 -1 -6 -6 -0.41 7.2
 -2 -6 -6 622.86 17.31
 -3 -6 -6 155.86 10.11
 -4 -6 -6 51.58 6.81
 -5 -6 -6 17.3 10.5
 -6 -6 -6 11.04 11.35
 -7 -6 -6 18.31 12.76
 -7 -7 -6 21.22 13.64
 -6 -7 -6 14.33 12.01
 -5 -7 -6 46.44 6.76
 -4 -7 -6 26.47 10.69
 -3 -7 -6 254.87 12.18
 -2 -7 -6 -0.27 8.84
 -1 -7 -6 181.28 9.59
 0 -7 -6 -0.4 7.05
 1 -7 -6 28.11 4.22
 2 -7 -6 98.08 6.78
 3 -7 -6 9.39 6.94
 4 -7 -6 1272.53 22.29
 5 -7 -6 53.25 5.45
 6 -7 -6 929.04 19.57
 7 -7 -6 28.71 5.37
 8 -7 -6 1450.85 25.7
 9 -7 -6 50.33 5.98
 10 -7 -6 382.14 14.49
 11 -7 -6 23.49 10.16
 12 -7 -6 9.34 10.84
 13 -7 -6 74.11 8.21
 14 -7 -6 3.08 12.43
 14 -8 -6 40.66 6.81
 13 -8 -6 5.43 11.79
 12 -8 -6 397 16.32
 11 -8 -6 24.66 10.43
 10 -8 -6 131.39 9.24
 9 -8 -6 79.11 7.25
 8 -8 -6 309.29 12.62
 7 -8 -6 1021.59 21.53
 6 -8 -6 1.56 7.75
 5 -8 -6 661.31 16.86
 4 -8 -6 74.64 6.65
 3 -8 -6 639.4 16.51
 2 -8 -6 1.67 7.28
 1 -8 -6 130.35 7.89
 0 -8 -6 -0.96 7.84
 -1 -8 -6 44.06 5.5
 -2 -8 -6 187.64 10.62
 -3 -8 -6 9.07 9.78
 -4 -8 -6 60.22 7.05
 -5 -8 -6 0.67 11.6
 -6 -8 -6 105.36 10.23
 -5 -9 -6 35.99 13.35
 -4 -9 -6 5.92 11.3
 -3 -9 -6 23.33 10.87
 -2 -9 -6 16.67 10.03
 -1 -9 -6 7.34 9.61
 0 -9 -6 221.25 10.99
 1 -9 -6 24.21 8.79
 2 -9 -6 416.01 14.03
 3 -9 -6 144.17 8.73
 4 -9 -6 1153.29 23.02
 5 -9 -6 278.52 11.78
 6 -9 -6 939.17 20.72
 7 -9 -6 246.33 11.49
 8 -9 -6 288.94 12.42
 9 -9 -6 317.95 13.1
 10 -9 -6 3 9.36
 11 -9 -6 65.03 7.12
 12 -9 -6 90.7 8.36
 13 -9 -6 157.22 11.2
 13 -10 -6 140.44 11.07
 12 -10 -6 25.83 12.23
 11 -10 -6 32.94 11.36
 10 -10 -6 6.56 10.15
 9 -10 -6 43.94 5.96
 8 -10 -6 216.97 11.06
 7 -10 -6 47.31 6.05
 6 -10 -6 207.3 10.63
 5 -10 -6 106.22 7.98
 4 -10 -6 784.26 20
 3 -10 -6 458.76 15.36
 2 -10 -6 138.92 8.9
 1 -10 -6 194.63 10.39
 0 -10 -6 122.32 8.95
 -1 -10 -6 115.58 8.9
 -2 -10 -6 -0.18 10.29
 -3 -10 -6 6.6 11.1
 -4 -10 -6 -2.08 11.82
 -4 -11 -6 7.24 12.93
 -3 -11 -6 5.37 11.91
 -2 -11 -6 1.87 10.88
 -1 -11 -6 97.41 9.03
 0 -11 -6 58.74 7.36
 1 -11 -6 256.16 12.64
 2 -11 -6 26.21 4.79
 3 -11 -6 450.7 16.33
 4 -11 -6 58.31 6.88
 5 -11 -6 253.84 12.15
 6 -11 -6 0.91 8.77
 7 -11 -6 43.1 5.53
 8 -11 -6 1.34 9.36
 9 -11 -6 17.18 10.46
 10 -11 -6 89.94 8.25
 11 -11 -6 -0.83 11.23
 12 -11 -6 63.2 7.83
 13 -11 -6 1.74 13.12
 12 -12 -6 3.73 12.33
 11 -12 -6 280.35 14.41
 10 -12 -6 1.88 11.24
 9 -12 -6 175.03 11.4
 8 -12 -6 14.47 10.17
 7 -12 -6 39.94 5.38
 6 -12 -6 39.53 5.58
 5 -12 -6 26.63 10.26
 4 -12 -6 441.33 16.26
 3 -12 -6 -2.36 10.17
 2 -12 -6 145.97 10.07
 1 -12 -6 3.23 10.67
 0 -12 -6 251.69 13.5
 -1 -12 -6 1.36 11.55
 -2 -12 -6 4.85 11.86
 -3 -12 -6 9.02 13.07
 -1 -13 -6 55.71 7.48
 0 -13 -6 5.36 11.84
 1 -13 -6 184.89 12.33
 2 -13 -6 32.65 5.56
 3 -13 -6 72.08 7.62
 4 -13 -6 18.19 11.14
 5 -13 -6 26.13 11.01
 6 -13 -6 44.86 6.23
 7 -13 -6 19.62 10.87
 8 -13 -6 48.06 6.28
 9 -13 -6 19.71 11.91
 10 -13 -6 185.47 12.02
 11 -13 -6 221.44 13.94
 12 -13 -6 121.29 10.47
 11 -14 -6 34.06 14.28
 10 -14 -6 121.96 10.67
 9 -14 -6 36.87 6.41
 8 -14 -6 26.28 12.21
 7 -14 -6 24.44 12.33
 6 -14 -6 3.49 11.29
 5 -14 -6 40.29 6.26
 4 -14 -6 4.5 10.81
 3 -14 -6 6.66 11.56
 2 -14 -6 3.77 11.55
 1 -14 -6 35.8 13.23
 0 -14 -6 51.81 7.76
 2 -15 -6 22.59 13.13
 3 -15 -6 -2.73 12.15
 4 -15 -6 -0.19 11.93
 5 -15 -6 13.37 11.97
 6 -15 -6 18.26 12.18
 7 -15 -6 150.73 11.31
 8 -15 -6 6.23 12.09
 9 -15 -6 33.03 13.65
 7 -16 -6 3.76 12.77
 6 -16 -6 25.24 13.74
 5 -16 -6 4.25 12.42
 4 -16 -6 1.87 12.74
 7 -15 -7 38 7.14
 6 -15 -7 28.61 13.64
 5 -15 -7 12.86 13.04
 2 -14 -7 12.69 12.9
 3 -14 -7 10.19 12.42
 4 -14 -7 2.18 11.79
 5 -14 -7 28.01 12.64
 6 -14 -7 9.94 12.39
 7 -14 -7 48.53 7.41
 8 -14 -7 15.63 12.64
 9 -14 -7 41.18 6.87
 11 -13 -7 91.63 10.41
 10 -13 -7 142.33 11.59
 9 -13 -7 7.93 12.19
 8 -13 -7 178.94 11.8
 7 -13 -7 25.5 12.4
 6 -13 -7 64.61 7.59
 5 -13 -7 -1.86 11.2
 4 -13 -7 6.35 10.95
 3 -13 -7 -0.97 11.51
 2 -13 -7 2.89 11.71
 1 -13 -7 75.5 8.95
 0 -13 -7 -2.36 13.07
 -1 -12 -7 8.09 12.62
 0 -12 -7 108.59 9.8
 1 -12 -7 12.86 11.92
 2 -12 -7 41.57 7.06
 3 -12 -7 2.16 10.77
 4 -12 -7 8.39 10.45
 5 -12 -7 33.11 11.31
 6 -12 -7 6.55 10.57
 7 -12 -7 125.14 9.58
 8 -12 -7 -2.82 11.37
 9 -12 -7 179.73 11.81
 10 -12 -7 16.88 12.64
 11 -12 -7 489.68 19.96
 12 -11 -7 84.99 9.64
 11 -11 -7 7.73 12.25
 10 -11 -7 334.01 15.49
 9 -11 -7 31.02 11.56
 8 -11 -7 21.65 10.85
 7 -11 -7 2.77 10.07
 6 -11 -7 14.49 9.98
 5 -11 -7 168.95 10.58
 4 -11 -7 14.01 10.13
 3 -11 -7 91.12 8.44
 2 -11 -7 2.87 10.13
 1 -11 -7 117.87 9.94
 0 -11 -7 126.35 10.3
 -1 -11 -7 32.32 12.36
 -2 -11 -7 5.7 12.21
 -3 -10 -7 6.33 12.43
 -2 -10 -7 -4.24 11.36
 -1 -10 -7 76.43 8.04
 0 -10 -7 38.36 6.39
 1 -10 -7 138.94 9.7
 2 -10 -7 39.9 5.76
 3 -10 -7 286.69 13.27
 4 -10 -7 44.41 6.24
 5 -10 -7 81.69 7.64
 6 -10 -7 52.32 5.94
 7 -10 -7 -4.53 9.53
 8 -10 -7 63.75 7.02
 9 -10 -7 36.05 5.65
 10 -10 -7 75.54 7.91
 11 -10 -7 48.2 6.91
 12 -10 -7 81.05 8.78
 13 -10 -7 83.67 9.33
 13 -9 -7 159.65 11.71
 12 -9 -7 0.36 11.59
 11 -9 -7 27.84 11.37
 10 -9 -7 9.45 10.37
 9 -9 -7 103.94 8.53
 8 -9 -7 46.52 5.96
 7 -9 -7 22.29 9.24
 6 -9 -7 71.35 6.92
 5 -9 -7 83.8 7.34
 4 -9 -7 838.79 21.16
 3 -9 -7 2.41 8.9
 2 -9 -7 252.59 12.07
 1 -9 -7 -0.06 9.28
 0 -9 -7 310.54 13.63
 -1 -9 -7 -2 10.28
 -2 -9 -7 -0.16 10.86
 -3 -9 -7 9.64 11.56
 -4 -9 -7 7.59 12.52
 -5 -8 -7 -0.22 12.76
 -4 -8 -7 13.94 12.16
 -3 -8 -7 0.64 10.56
 -2 -8 -7 27.24 10.55
 -1 -8 -7 58.77 6.74
 0 -8 -7 28.86 9.69
 1 -8 -7 50.62 6.03
 2 -8 -7 84.35 7.06
 3 -8 -7 657.56 17.78
 4 -8 -7 5.76 8.52
 5 -8 -7 622.47 17.61
 6 -8 -7 4.2 8.37
 7 -8 -7 360.07 13.6
 8 -8 -7 53.49 6.19
 9 -8 -7 8.13 9.4
 10 -8 -7 77.26 7.28
 11 -8 -7 1.76 10.35
 12 -8 -7 198.18 12.16
 13 -8 -7 -1.2 12.52
 13 -7 -7 147.39 11.05
 12 -7 -7 50.83 6.87
 11 -7 -7 25.62 10.71
 10 -7 -7 74.12 7.25
 9 -7 -7 56.54 6.31
 8 -7 -7 660.48 18.5
 7 -7 -7 94.82 7.51
 6 -7 -7 489.41 15.12
 5 -7 -7 108.9 7.51
 4 -7 -7 1045.72 21.39
 3 -7 -7 123.17 8.16
 2 -7 -7 120.14 8.12
 1 -7 -7 71.12 6.17
 0 -7 -7 2.46 8.2
 -1 -7 -7 146.87 9.59
 -2 -7 -7 8 9.61
 -3 -7 -7 22.55 10.71
 -4 -7 -7 -0.27 11.34
 -5 -7 -7 63.38 8.56
 -6 -6 -7 12.23 12.67
 -5 -6 -7 16.27 11.86
 -4 -6 -7 30.14 11.24
 -3 -6 -7 54.53 6.84
 -2 -6 -7 191.18 10.75
 -1 -6 -7 59.71 6.36
 0 -6 -7 161.2 8.88
 1 -6 -7 1.15 7.28
 2 -6 -7 860.85 19.12
 3 -6 -7 329.76 12.27
 4 -6 -7 466.37 14.08
 5 -6 -7 89.01 6.53
 6 -6 -7 570.6 15.93
 7 -6 -7 490.06 15.12
 8 -6 -7 116.25 8.37
 9 -6 -7 341.21 13.47
 10 -6 -7 35.55 5.51
 11 -6 -7 139.19 9.92
 12 -6 -7 59.03 7.19
 13 -6 -7 30.57 12.69
 14 -6 -7 55.95 7.17
 14 -5 -7 30.57 13.64
 13 -5 -7 2.93 11.7
 12 -5 -7 354.1 15.1
 11 -5 -7 86.35 8.03
 10 -5 -7 218.88 11.49
 9 -5 -7 329.77 13.14
 8 -5 -7 451.98 15.05
 7 -5 -7 781.74 18.55
 6 -5 -7 11.27 7.56
 5 -5 -7 438.61 13.5
 4 -5 -7 -0.95 6.94
 3 -5 -7 371.5 12.31
 2 -5 -7 156.44 8.34
 1 -5 -7 127.73 7.64
 0 -5 -7 20.63 7.71
 -1 -5 -7 29.72 4.6
 -2 -5 -7 495.19 16.27
 -3 -5 -7 14.76 9.68
 -4 -5 -7 94.74 8.61
 -5 -5 -7 10.12 11.03
 -6 -5 -7 20.97 12.33
 -7 -5 -7 -6.06 13.73
 -7 -4 -7 16.42 12.76
 -6 -4 -7 -0.23 11.01
 -5 -4 -7 78.74 7.66
 -4 -4 -7 41.14 6.14
 -3 -4 -7 516.08 16.93
 -2 -4 -7 -0.99 8.27
 -1 -4 -7 116.59 7.49
 0 -4 -7 25.27 4
 1 -4 -7 13.62 6.94
 2 -4 -7 140.03 7.79
 3 -4 -7 85.53 6.3
 4 -4 -7 984.93 19.11
 5 -4 -7 178.33 9.06
 6 -4 -7 1779.61 26.5
 7 -4 -7 231.06 10.73
 8 -4 -7 1778.05 28.31
 9 -4 -7 1.47 8.32
 10 -4 -7 940.19 22.34
 11 -4 -7 99.09 8.76
 12 -4 -7 45.79 6.37
 13 -4 -7 58.77 7.3
 14 -4 -7 6.33 12.65
 14 -3 -7 13.3 12.8
 13 -3 -7 154.53 11.04
 12 -3 -7 40.51 6.16
 11 -3 -7 571.12 18.4
 10 -3 -7 1.94 9.07
 9 -3 -7 892.81 20.77
 8 -3 -7 22.32 4.49
 7 -3 -7 2266.09 31.04
 6 -3 -7 27.29 4.56
 5 -3 -7 412.4 12.68
 4 -3 -7 88.61 6.1
 3 -3 -7 84.03 5.95
 2 -3 -7 1252.91 21.15
 1 -3 -7 204.36 9.25
 0 -3 -7 569.55 15.19
 -1 -3 -7 0.38 6.87
 -2 -3 -7 753.22 18.65
 -3 -3 -7 81.44 7.34
 -4 -3 -7 165.91 10.38
 -5 -3 -7 26.32 10.4
 -6 -3 -7 13.53 10.9
 -7 -3 -7 4.34 11.63
 -8 -3 -7 1.81 12.67
 -8 -2 -7 -2.28 12.36
 -7 -2 -7 0.76 11.16
 -6 -2 -7 13.4 10.32
 -5 -2 -7 5.65 9.31
 -4 -2 -7 314.35 13.26
 -3 -2 -7 474.21 15.12
 -2 -2 -7 208.44 9.96
 -1 -2 -7 344.34 11.94
 0 -2 -7 785.56 17.07
 1 -2 -7 1823.4 25.78
 2 -2 -7 911.73 17.71
 3 -2 -7 148.96 7.49
 4 -2 -7 83.42 5.86
 5 -2 -7 205.45 9.06
 6 -2 -7 244.52 9.98
 7 -2 -7 194.54 9.58
 8 -2 -7 267.58 11.09
 9 -2 -7 394.23 13.8
 10 -2 -7 1081.02 23.73
 11 -2 -7 13.21 10.38
 12 -2 -7 387.84 16.03
 13 -2 -7 36.9 6.26
 14 -2 -7 180.38 12.41
 14 -1 -7 14.57 13.5
 13 -1 -7 136.6 10.5
 12 -1 -7 117.8 9.61
 11 -1 -7 346.7 14.52
 10 -1 -7 336.59 13.71
 9 -1 -7 20.17 8.59
 8 -1 -7 175.56 9.2
 7 -1 -7 5.88 6.81
 6 -1 -7 493.87 13.57
 5 -1 -7 57.64 5.57
 4 -1 -7 491.74 13.19
 3 -1 -7 84.14 5.78
 2 -1 -7 21.1 3.59
 1 -1 -7 1607.65 23.45
 0 -1 -7 195.49 8.9
 -1 -1 -7 683.84 16.09
 -2 -1 -7 64.28 5.86
 -3 -1 -7 320.94 12.19
 -4 -1 -7 0.98 8.18
 -5 -1 -7 98.63 7.89
 -6 -1 -7 12.63 9.82
 -7 -1 -7 8.04 10.74
 -8 -1 -7 1.11 11.9
 -9 0 -7 47.38 7.87
 -8 0 -7 1.57 11.42
 -7 0 -7 38.95 6.22
 -6 0 -7 2.39 9.36
 -5 0 -7 78.01 7.35
 -4 0 -7 34.48 4.94
 -3 0 -7 -0.37 7.11
 -2 0 -7 363.05 12.08
 -1 0 -7 6.52 6.91
 0 0 -7 2366.77 29.01
 1 0 -7 116.77 6.89
 2 0 -7 882.77 16.82
 3 0 -7 45.95 4.5
 4 0 -7 1143.67 19.27
 5 0 -7 571.05 14.22
 6 0 -7 53.61 5.19
 7 0 -7 22.52 3.94
 8 0 -7 20.49 7.82
 9 0 -7 332.53 13.04
 10 0 -7 197.91 10.92
 11 0 -7 269.89 12.75
 12 0 -7 40.71 6.24
 13 0 -7 325.96 15.81
 13 1 -7 2.42 11.96
 12 1 -7 383.91 16.23
 11 1 -7 -2.79 10.01
 10 1 -7 467.1 16.16
 9 1 -7 9.49 8.49
 8 1 -7 542.99 15.52
 7 1 -7 104.2 7.22
 6 1 -7 39.99 5.03
 5 1 -7 1233.4 20.7
 4 1 -7 -0.04 6.05
 3 1 -7 1928.18 24.84
 2 1 -7 4.16 5.55
 1 1 -7 1217.15 19.83
 0 1 -7 109.52 6.61
 -1 1 -7 719.68 15.98
 -2 1 -7 101.88 6.82
 -3 1 -7 20.69 7.31
 -4 1 -7 6.17 7.75
 -5 1 -7 16.93 8.7
 -6 1 -7 116.61 8.68
 -7 1 -7 21.02 10.69
 -8 1 -7 36.63 6.13
 -9 1 -7 13.21 13.02
 -9 2 -7 22.58 12.83
 -8 2 -7 38.83 6.38
 -7 2 -7 31.31 5.61
 -6 2 -7 87 8.03
 -5 2 -7 80.37 7.2
 -4 2 -7 -1.79 7.3
 -3 2 -7 49.82 4.91
 -2 2 -7 11.92 6.8
 -1 2 -7 285.21 10.13
 0 2 -7 425.96 11.93
 1 2 -7 74.83 5.37
 2 2 -7 1056.03 18.05
 3 2 -7 966.56 17.52
 4 2 -7 1724.12 23.82
 5 2 -7 2.94 6.13
 6 2 -7 645 15.76
 7 2 -7 102.81 7.39
 8 2 -7 180.6 9.38
 9 2 -7 293.42 12.49
 10 2 -7 36.51 5.29
 11 2 -7 100.04 8.4
 12 2 -7 45.55 7.2
 13 2 -7 202.84 12.96
 13 3 -7 64.27 8.1
 12 3 -7 146.38 11.2
 11 3 -7 62.85 6.87
 10 3 -7 -0.34 9.21
 9 3 -7 320.93 13.18
 8 3 -7 -0.47 8.26
 7 3 -7 134.94 8.06
 6 3 -7 643.59 15.95
 5 3 -7 1000.71 18.95
 4 3 -7 1341.14 21.06
 3 3 -7 1256.39 20.26
 2 3 -7 1881.27 24.6
 1 3 -7 55.81 4.8
 0 3 -7 624.16 14.19
 -1 3 -7 0.3 5.9
 -2 3 -7 518.49 13.88
 -3 3 -7 42.11 4.98
 -4 3 -7 101.28 7.04
 -5 3 -7 150.75 9.22
 -6 3 -7 100.89 8.37
 -7 3 -7 136.84 9.95
 -8 3 -7 8.98 10.93
 -9 3 -7 45.67 6.92
 -10 4 -7 9.89 13
 -9 4 -7 -1.46 11.65
 -8 4 -7 127.66 10
 -7 4 -7 4.45 9.57
 -6 4 -7 341.39 14.31
 -5 4 -7 -0.84 8.16
 -4 4 -7 88.23 6.68
 -3 4 -7 8.96 6.92
 -2 4 -7 164.45 8.25
 -1 4 -7 71.88 5.39
 0 4 -7 -2.16 5.86
 1 4 -7 775.39 15.74
 2 4 -7 36.8 4.44
 3 4 -7 2808.84 30.94
 4 4 -7 221.95 9.31
 5 4 -7 1494.98 23.44
 6 4 -7 148.21 8.41
 7 4 -7 1128.58 22.42
 8 4 -7 481.34 15.59
 9 4 -7 289.87 12.87
 10 4 -7 14.75 9.74
 11 4 -7 2.12 10.62
 12 4 -7 164.4 11.74
 13 4 -7 12.83 13.17
 12 5 -7 0.94 12.03
 11 5 -7 40.1 5.94
 10 5 -7 104.03 8.53
 9 5 -7 9.01 9.21
 8 5 -7 472.86 15.39
 7 5 -7 -1.49 8.22
 6 5 -7 1746.98 26.68
 5 5 -7 1.88 7.01
 4 5 -7 710.75 15.94
 3 5 -7 10.64 6.31
 2 5 -7 1363.92 21.26
 1 5 -7 32.15 3.92
 0 5 -7 196.65 8.33
 -1 5 -7 57.04 5.08
 -2 5 -7 8.47 6.56
 -3 5 -7 125.25 7.77
 -4 5 -7 59.72 5.7
 -5 5 -7 220.01 10.78
 -6 5 -7 1.74 8.95
 -7 5 -7 59.34 7.44
 -8 5 -7 29.57 5.53
 -9 5 -7 28.85 12.49
 -10 5 -7 2.43 12.43
 -10 6 -7 4.18 12.65
 -9 6 -7 12.7 11.73
 -8 6 -7 12.67 10.99
 -7 6 -7 15.16 10.3
 -6 6 -7 292.73 12.7
 -5 6 -7 129.41 8.56
 -4 6 -7 220.4 10.12
 -3 6 -7 89.78 7.03
 -2 6 -7 875.92 18.42
 -1 6 -7 5.67 6.29
 0 6 -7 185.41 8.22
 1 6 -7 202.38 8.7
 2 6 -7 15.93 6.47
 3 6 -7 609.61 14.99
 4 6 -7 9.68 6.64
 5 6 -7 810.52 18.1
 6 6 -7 119.15 8.01
 7 6 -7 785.02 19.41
 8 6 -7 -1.04 9
 9 6 -7 326.49 14.08
 10 6 -7 1.01 10.35
 11 6 -7 48.2 7.24
 12 6 -7 39.41 13.63
 11 7 -7 -3.88 12.37
 10 7 -7 327.92 14.83
 9 7 -7 113.95 9.19
 8 7 -7 399.97 14.92
 7 7 -7 216.54 11.2
 6 7 -7 623.53 17.19
 5 7 -7 311.14 11.93
 4 7 -7 26.2 4.08
 3 7 -7 26.2 4.12
 2 7 -7 26.59 4.1
 1 7 -7 -0.29 6.52
 0 7 -7 54.88 5.2
 -1 7 -7 11.85 6.89
 -2 7 -7 645.88 15.97
 -3 7 -7 345.97 12.26
 -4 7 -7 515.64 15.52
 -5 7 -7 19.77 8.52
 -6 7 -7 173.66 10.07
 -7 7 -7 3.68 9.73
 -8 7 -7 54.48 7.08
 -9 7 -7 -0.34 11.33
 -10 7 -7 0.32 12.36
 -10 8 -7 7.63 12.43
 -9 8 -7 -1.29 11.52
 -8 8 -7 29.41 11.41
 -7 8 -7 1.49 9.69
 -6 8 -7 -0.6 9.07
 -5 8 -7 281.62 12.44
 -4 8 -7 -2.42 8.2
 -3 8 -7 602.09 16.45
 -2 8 -7 10.46 7.36
 -1 8 -7 176.76 8.8
 0 8 -7 14.32 7.11
 1 8 -7 223.25 9.87
 2 8 -7 38.4 4.93
 3 8 -7 138.99 7.78
 4 8 -7 112.71 7.52
 5 8 -7 4.38 7.69
 6 8 -7 293.85 12.21
 7 8 -7 145.1 9.41
 8 8 -7 266.16 12.72
 9 8 -7 108.07 8.93
 10 8 -7 131.2 10.75
 11 8 -7 51.29 7.38
 10 9 -7 19.83 12.7
 9 9 -7 147.25 10.73
 8 9 -7 3.32 9.86
 7 9 -7 198.31 11
 6 9 -7 36.45 5.28
 5 9 -7 268.31 11.66
 4 9 -7 5.82 7.83
 3 9 -7 60.64 5.89
 2 9 -7 233.37 10.1
 1 9 -7 117.95 7.6
 0 9 -7 294.32 11.25
 -1 9 -7 30.28 4.39
 -2 9 -7 103.67 7.41
 -3 9 -7 -4.67 7.99
 -4 9 -7 220.62 10.61
 -5 9 -7 10.23 8.98
 -6 9 -7 5.96 9.04
 -7 9 -7 3.44 9.64
 -8 9 -7 6.55 10.72
 -9 9 -7 30.27 12.47
 -10 9 -7 3.54 12.81
 -10 10 -7 13.15 13.21
 -9 10 -7 22.29 12.47
 -8 10 -7 5.53 11.11
 -7 10 -7 -2.29 9.92
 -6 10 -7 43.37 5.79
 -5 10 -7 52.4 5.87
 -4 10 -7 64.29 6.6
 -3 10 -7 46.57 5.22
 -2 10 -7 11.24 7.79
 -1 10 -7 303.92 11.84
 0 10 -7 142.67 8.57
 1 10 -7 188.93 9.55
 2 10 -7 -0.75 7.42
 3 10 -7 101.82 7.25
 4 10 -7 17.82 8.61
 5 10 -7 6.7 8.95
 6 10 -7 97.78 7.91
 7 10 -7 28.18 5.19
 8 10 -7 58.75 6.93
 9 10 -7 1.84 11.54
 10 10 -7 129.51 10.78
 9 11 -7 46.25 7.54
 8 11 -7 39.8 6.4
 7 11 -7 4.36 10.52
 6 11 -7 54.83 6.84
 5 11 -7 3.26 9.16
 4 11 -7 88.11 7.49
 3 11 -7 98.46 7.65
 2 11 -7 200.53 10.22
 1 11 -7 234.44 10.88
 0 11 -7 218.44 10.5
 -1 11 -7 453.6 14.87
 -2 11 -7 20.86 8.35
 -3 11 -7 81.93 6.98
 -4 11 -7 -0.41 8.68
 -5 11 -7 101.92 8.19
 -6 11 -7 7.69 9.85
 -7 11 -7 70.67 7.3
 -8 11 -7 6.52 11.34
 -9 11 -7 5.76 12.52
 -9 12 -7 35.74 13.46
 -8 12 -7 8.42 11.65
 -7 12 -7 75.65 7.87
 -6 12 -7 3.14 10.06
 -5 12 -7 23.87 9.87
 -4 12 -7 9.88 9.22
 -3 12 -7 29.77 4.76
 -2 12 -7 115.56 8.34
 -1 12 -7 40.3 5.97
 0 12 -7 418.83 14.38
 1 12 -7 39.25 5.53
 2 12 -7 283.75 12.37
 3 12 -7 53.1 6.43
 4 12 -7 66.45 6.82
 5 12 -7 61.72 6.79
 6 12 -7 28.8 10.95
 7 12 -7 20.65 11.68
 8 12 -7 0.81 11.95
 8 13 -7 4.68 12.87
 7 13 -7 12.02 12.38
 6 13 -7 4.29 10.99
 5 13 -7 193.47 11.48
 4 13 -7 6.85 10.41
 3 13 -7 327.93 14.12
 2 13 -7 -1.1 9.7
 1 13 -7 108.16 8.32
 0 13 -7 25.84 9.7
 -1 13 -7 412.73 14.95
 -2 13 -7 5.32 8.91
 -3 13 -7 15.51 9.45
 -4 13 -7 42.6 5.8
 -5 13 -7 -0.6 10.07
 -6 13 -7 35.57 6.09
 -7 13 -7 -9.99 11.49
 -8 13 -7 48.21 7.63
 -9 13 -7 3.64 12.49
 -8 14 -7 5.21 12.43
 -7 14 -7 51.86 7.26
 -6 14 -7 13.72 11.19
 -5 14 -7 29.51 5.33
 -4 14 -7 0.29 9.76
 -3 14 -7 45.52 5.94
 -2 14 -7 3.93 9.5
 -1 14 -7 21.66 9.92
 0 14 -7 5.68 9.44
 1 14 -7 2.32 9.44
 2 14 -7 235.68 12.49
 3 14 -7 -6.95 10.55
 4 14 -7 190.67 11.69
 5 14 -7 -7.84 11.76
 6 14 -7 54.82 7.58
 7 14 -7 9.69 12.96
 6 15 -7 -9.2 13.25
 5 15 -7 53.75 7.54
 4 15 -7 2.27 11.35
 3 15 -7 100.13 8.9
 2 15 -7 5.53 10.65
 1 15 -7 16.08 10.93
 0 15 -7 1.1 9.9
 -1 15 -7 -3.12 9.95
 -2 15 -7 8.1 10.09
 -3 15 -7 18.15 10.9
 -4 15 -7 31.63 11.42
 -5 15 -7 19.23 11.36
 -6 15 -7 14 11.58
 -7 15 -7 38.65 13.14
 -8 15 -7 12.03 13.17
 -7 16 -7 1.43 12.82
 -6 16 -7 24.51 12.4
 -5 16 -7 24.44 12.06
 -4 16 -7 40.5 6.32
 -3 16 -7 15.91 11.52
 -2 16 -7 9.99 11.02
 -1 16 -7 14.39 10.77
 0 16 -7 0.29 10.68
 1 16 -7 28.08 11.91
 2 16 -7 5.09 11.61
 3 16 -7 24.96 12.47
 4 16 -7 15.57 12.79
 5 16 -7 16.01 13.78
 3 17 -7 3.44 12.41
 2 17 -7 7.25 12.36
 1 17 -7 -0.33 11.91
 0 17 -7 6.94 11.49
 -1 17 -7 33.25 12.3
 -2 17 -7 -3.87 11.72
 -3 17 -7 87.87 8.73
 -4 17 -7 -0.92 12.37
 -5 17 -7 53.27 7.69
 -6 17 -7 -1.05 12.78
 -4 18 -7 49.91 7.89
 -3 18 -7 -0.09 12.44
 -2 18 -7 42.37 7.61
 -1 18 -7 3.29 12.12
 0 18 -7 21.33 13.19
 1 18 -7 0.11 12.68
 -4 17 -8 2.92 12.53
 -3 17 -8 13.49 12.68
 -2 17 -8 -5.5 12.43
 -1 17 -8 2.95 12.04
 0 17 -8 4.81 12.25
 1 17 -8 -4.32 12.65
 2 17 -8 64.43 8.67
 4 16 -8 14.57 13.13
 3 16 -8 66.57 8.35
 2 16 -8 14.48 12.5
 1 16 -8 15.93 12.01
 0 16 -8 0.05 11.22
 -1 16 -8 13.87 11.62
 -2 16 -8 2.59 11.22
 -3 16 -8 4.96 11.42
 -4 16 -8 13.49 12.32
 -5 16 -8 7.78 12.13
 -6 16 -8 19.36 13.38
 -6 15 -8 -2.4 12.4
 -5 15 -8 8.32 11.97
 -4 15 -8 4.68 11.24
 -3 15 -8 4.5 10.9
 -2 15 -8 4.44 11
 -1 15 -8 1.38 10.89
 0 15 -8 2.56 11.06
 1 15 -8 17.18 11.06
 2 15 -8 12.37 11.61
 3 15 -8 32.76 12.94
 4 15 -8 13.05 12.34
 5 15 -8 25.41 13.36
 6 14 -8 32.25 13.13
 5 14 -8 4.96 11.92
 4 14 -8 109.01 9.92
 3 14 -8 13.82 11.67
 2 14 -8 194.49 11.85
 1 14 -8 13.61 10.67
 0 14 -8 88.86 8.55
 -1 14 -8 74.47 7.95
 -2 14 -8 70.16 7.65
 -3 14 -8 2.25 10.46
 -4 14 -8 -0.77 10.78
 -5 14 -8 5.96 11.23
 -6 14 -8 11.81 12.22
 -7 14 -8 19.74 13.09
 -8 13 -8 7.49 12.97
 -7 13 -8 -1.68 11.88
 -6 13 -8 31.8 11.85
 -5 13 -8 2.75 10.56
 -4 13 -8 16.68 10.55
 -3 13 -8 17.99 10.2
 -2 13 -8 5.12 9.78
 -1 13 -8 427.97 16.24
 0 13 -8 -0.13 9.85
 1 13 -8 315.14 13.91
 2 13 -8 -2.93 10.26
 3 13 -8 255.46 12.94
 4 13 -8 -5.61 11.18
 5 13 -8 46.99 6.79
 6 13 -8 -0.15 11.7
 7 13 -8 10.11 12.47
 8 12 -8 1.5 12.29
 7 12 -8 27.97 12.45
 6 12 -8 -3.91 11.26
 5 12 -8 41.5 5.97
 4 12 -8 4.09 9.8
 3 12 -8 14.38 9.91
 2 12 -8 139.48 9.53
 1 12 -8 21.05 9.66
 0 12 -8 270.74 12.38
 -1 12 -8 46.42 6.36
 -2 12 -8 65.87 6.87
 -3 12 -8 2.85 9.2
 -4 12 -8 41.96 5.83
 -5 12 -8 5.5 10.14
 -6 12 -8 3.31 10.78
 -7 12 -8 3.77 11.5
 -8 12 -8 -4.69 12.35
 -8 11 -8 2.85 12.3
 -7 11 -8 -0.52 11.27
 -6 11 -8 -0.23 10.42
 -5 11 -8 22.09 10.21
 -4 11 -8 2.76 9.55
 -3 11 -8 92.18 7.58
 -2 11 -8 51.23 6.08
 -1 11 -8 172.26 9.84
 0 11 -8 121.03 8.49
 1 11 -8 132.38 8.76
 2 11 -8 65.91 6.54
 3 11 -8 75.87 7.04
 4 11 -8 29.67 9.96
 5 11 -8 17.99 10.13
 6 11 -8 38.51 5.72
 7 11 -8 26.32 5.59
 8 11 -8 42.91 6.82
 9 11 -8 60.3 8.21
 9 10 -8 8.92 12.18
 8 10 -8 97.62 9.03
 7 10 -8 11.45 10.8
 6 10 -8 121.89 9.2
 5 10 -8 15.43 9.55
 4 10 -8 -2.32 8.87
 3 10 -8 43.09 5.44
 2 10 -8 -3 8.15
 1 10 -8 140.37 8.78
 0 10 -8 -1.8 8.26
 -1 10 -8 126.81 8.41
 -2 10 -8 74.82 7.24
 -3 10 -8 83.15 7.36
 -4 10 -8 70.59 7.21
 -5 10 -8 5.5 9.59
 -6 10 -8 16.45 10.62
 -7 10 -8 -0.04 10.96
 -8 10 -8 8.32 12.05
 -9 9 -8 9.96 12.79
 -8 9 -8 -1.27 11.73
 -7 9 -8 -0.2 10.82
 -6 9 -8 90.13 8.21
 -5 9 -8 7.14 9.53
 -4 9 -8 201.63 11
 -3 9 -8 3.77 8.64
 -2 9 -8 409.04 14.33
 -1 9 -8 8.41 7.83
 0 9 -8 341.66 12.82
 1 9 -8 52.08 5.75
 2 9 -8 72.8 6.53
 3 9 -8 70.74 6.27
 4 9 -8 47.97 5.66
 5 9 -8 160.4 9.53
 6 9 -8 2.09 9.12
 7 9 -8 224.74 12.06
 8 9 -8 -3.3 11.01
 9 9 -8 201.42 12.63
 10 9 -8 5.23 12.65
 11 8 -8 44.06 7.02
 10 8 -8 103.35 9.46
 9 8 -8 28.59 11.85
 8 8 -8 268.06 13.37
 7 8 -8 22.52 10.13
 6 8 -8 614.49 18.04
 5 8 -8 -0.76 8.42
 4 8 -8 154.03 8.8
 3 8 -8 48.71 5.39
 2 8 -8 261.74 10.95
 1 8 -8 355.1 12.66
 0 8 -8 15.06 7.68
 -1 8 -8 504.3 15
 -2 8 -8 -5.44 8.17
 -3 8 -8 416.52 14.59
 -4 8 -8 3.93 9.01
 -5 8 -8 162.24 10.01
 -6 8 -8 7.47 10.04
 -7 8 -8 23.85 11.41
 -8 8 -8 11.73 12.06
 -9 8 -8 7.2 12.93
 -9 7 -8 0.66 12.38
 -8 7 -8 85.83 9.17
 -7 7 -8 5.31 10.67
 -6 7 -8 231.56 12.5
 -5 7 -8 14.49 9.46
 -4 7 -8 201.88 10.53
 -3 7 -8 78.21 6.97
 -2 7 -8 219.27 10.27
 -1 7 -8 1.53 7.26
 0 7 -8 63.49 5.63
 1 7 -8 111.52 7.44
 2 7 -8 11.4 7.27
 3 7 -8 229.32 10.48
 4 7 -8 116.41 7.81
 5 7 -8 290.19 11.73
 6 7 -8 194.84 10.4
 7 7 -8 251.22 12.27
 8 7 -8 200.39 11.36
 9 7 -8 155.04 10.32
 10 7 -8 51.66 7.18
 11 7 -8 2.26 12.23
 12 6 -8 17.65 13.72
 11 6 -8 16.74 12.3
 10 6 -8 -4.33 11.25
 9 6 -8 116.87 8.97
 8 6 -8 2.21 9.29
 7 6 -8 145.16 9.54
 6 6 -8 232.76 11.06
 5 6 -8 384.96 13.29
 4 6 -8 214.34 10.09
 3 6 -8 245.03 10.27
 2 6 -8 611.62 15.76
 1 6 -8 1.62 6.72
 0 6 -8 65.27 5.63
 -1 6 -8 1 6.9
 -2 6 -8 203.04 9.96
 -3 6 -8 17.95 8.29
 -4 6 -8 83.67 6.98
 -5 6 -8 158.32 10.08
 -6 6 -8 176.95 11.06
 -7 6 -8 45.33 6.75
 -8 6 -8 -3.37 12.41
 -9 6 -8 11.89 13.23
 -9 5 -8 5.04 12.82
 -8 5 -8 33.46 12.73
 -7 5 -8 13.2 11.28
 -6 5 -8 28.18 10.74
 -5 5 -8 75.89 7.33
 -4 5 -8 7.04 8.33
 -3 5 -8 113.58 7.79
 -2 5 -8 -0.04 7.56
 -1 5 -8 60.38 5.63
 0 5 -8 89.53 6.35
 1 5 -8 128.34 7.27
 2 5 -8 678.34 16.41
 3 5 -8 754.42 17.44
 4 5 -8 960.73 19.72
 5 5 -8 50.59 5.97
 6 5 -8 967.72 21.13
 7 5 -8 13.14 8.48
 8 5 -8 145.5 9.48
 9 5 -8 2.52 9.58
 10 5 -8 14.79 10.59
 11 5 -8 7.8 11.71
 12 5 -8 -3.35 13.08
 12 4 -8 216.33 13.22
 11 4 -8 -0.09 10.96
 10 4 -8 49.45 6.66
 9 4 -8 47.19 6.36
 8 4 -8 355.72 13.74
 7 4 -8 293.72 12.22
 6 4 -8 16.49 7.82
 5 4 -8 845.7 18.68
 4 4 -8 -0.04 7.05
 3 4 -8 1405.33 23.36
 2 4 -8 0.07 6.58
 1 4 -8 247.25 10.06
 0 4 -8 1.1 6.6
 -1 4 -8 312.53 11.56
 -2 4 -8 143.43 8.39
 -3 4 -8 13.93 7.93
 -4 4 -8 66.6 6.36
 -5 4 -8 1.17 8.92
 -6 4 -8 120.1 9.33
 -7 4 -8 17.87 11.19
 -8 4 -8 26.66 12.8
 -9 4 -8 0.75 12.91
 -8 3 -8 3.64 11.75
 -7 3 -8 48.39 6.62
 -6 3 -8 -6.99 10.29
 -5 3 -8 72.05 7.25
 -4 3 -8 9.34 8.52
 -3 3 -8 7.22 7.64
 -2 3 -8 264.74 10.95
 -1 3 -8 3.9 7.13
 0 3 -8 729.33 17.02
 1 3 -8 30.13 4.04
 2 3 -8 394.92 12.4
 3 3 -8 19.26 6.97
 4 3 -8 296.91 10.89
 5 3 -8 91.42 6.79
 6 3 -8 97.78 6.98
 7 3 -8 5.43 7.88
 8 3 -8 158.45 9.81
 9 3 -8 397.25 15.06
 10 3 -8 165.36 10.48
 11 3 -8 88.98 8.52
 12 3 -8 70.01 8.5
 13 3 -8 111.14 10.15
 13 2 -8 135.98 11.39
 12 2 -8 67.29 8.51
 11 2 -8 180.33 11.71
 10 2 -8 9.83 10.05
 9 2 -8 431.88 15.37
 8 2 -8 12.84 8.43
 7 2 -8 2.62 7.34
 6 2 -8 24.65 4.46
 5 2 -8 13.23 6.94
 4 2 -8 273.1 10.46
 3 2 -8 67.32 5.79
 2 2 -8 148.1 7.85
 1 2 -8 332.34 11.53
 0 2 -8 263.18 10.77
 -1 2 -8 419.55 13.41
 -2 2 -8 -0.17 7.31
 -3 2 -8 21.6 8.23
 -4 2 -8 -3.74 8.52
 -5 2 -8 0.3 9.36
 -6 2 -8 36.89 6.16
 -7 2 -8 -1.67 11.2
 -8 2 -8 1.67 12.02
 -8 1 -8 4.17 12.23
 -7 1 -8 -0.43 11.05
 -6 1 -8 7.65 10.44
 -5 1 -8 3.07 9.26
 -4 1 -8 50.91 6.55
 -3 1 -8 93.37 7.56
 -2 1 -8 129.44 8.01
 -1 1 -8 308.51 11.91
 0 1 -8 310.31 11.67
 1 1 -8 714.9 16.75
 2 1 -8 117.74 7.05
 3 1 -8 151.07 7.93
 4 1 -8 16.12 6.85
 5 1 -8 195.48 9.32
 6 1 -8 133.67 7.75
 7 1 -8 50.66 5.61
 8 1 -8 30.53 4.6
 9 1 -8 53.39 6.4
 10 1 -8 579.12 18.26
 11 1 -8 3.1 10.38
 12 1 -8 342.42 15.64
 13 1 -8 4.67 12.77
 13 0 -8 190.38 12.34
 12 0 -8 34.94 12.21
 11 0 -8 396.97 16.32
 10 0 -8 10.96 10.01
 9 0 -8 660.26 18.68
 8 0 -8 80.16 7.11
 7 0 -8 509.67 15.05
 6 0 -8 1.06 7.1
 5 0 -8 472.3 13.73
 4 0 -8 153.87 8.08
 3 0 -8 2 6.53
 2 0 -8 716.08 16.68
 1 0 -8 9.02 7.11
 0 0 -8 1071.21 21.25
 -1 0 -8 6.8 7.47
 -2 0 -8 392.01 13.61
 -3 0 -8 -6.29 8.76
 -4 0 -8 112 8.54
 -5 0 -8 14.44 10
 -6 0 -8 4.9 10.43
 -7 0 -8 -0.57 11.77
 -8 0 -8 -3.31 12.74
 -7 -1 -8 16.63 12.32
 -6 -1 -8 1.7 10.8
 -5 -1 -8 106.2 8.71
 -4 -1 -8 -0.12 9.84
 -3 -1 -8 362.47 14.55
 -2 -1 -8 19.91 8.59
 -1 -1 -8 288.04 11.84
 0 -1 -8 178.52 9.32
 1 -1 -8 966.11 20.1
 2 -1 -8 140.24 8.15
 3 -1 -8 45.33 4.83
 4 -1 -8 163.55 8.27
 5 -1 -8 8.04 7.15
 6 -1 -8 477.62 14.61
 7 -1 -8 324.17 12.32
 8 -1 -8 695.81 18.43
 9 -1 -8 42.29 5.71
 10 -1 -8 613.39 19.05
 11 -1 -8 264.83 13.32
 12 -1 -8 128.97 10.19
 13 -1 -8 56.72 7.63
 13 -2 -8 -6.64 12.81
 12 -2 -8 291.18 14.27
 11 -2 -8 80.87 8.27
 10 -2 -8 386.23 15.12
 9 -2 -8 354.15 14.18
 8 -2 -8 553.69 16.66
 7 -2 -8 387.74 13.59
 6 -2 -8 447.11 14.12
 5 -2 -8 271.71 10.88
 4 -2 -8 13.36 7.14
 3 -2 -8 0.19 6.72
 2 -2 -8 28.54 4.61
 1 -2 -8 391.24 13.28
 0 -2 -8 16.01 7.65
 -1 -2 -8 6.46 7.74
 -2 -2 -8 460.93 15.47
 -3 -2 -8 86.1 7.89
 -4 -2 -8 260.8 12.75
 -5 -2 -8 35.32 6.03
 -6 -2 -8 12.51 11.61
 -7 -2 -8 -2.2 12.43
 -6 -3 -8 11.37 12.11
 -5 -3 -8 14.54 11.2
 -4 -3 -8 50.51 7.04
 -3 -3 -8 90.77 8.28
 -2 -3 -8 250.42 12.47
 -1 -3 -8 61.55 5.8
 0 -3 -8 0.76 7.4
 1 -3 -8 2.06 7.13
 2 -3 -8 88.91 6.71
 3 -3 -8 467.95 13.87
 4 -3 -8 175.25 8.86
 5 -3 -8 387.42 13.03
 6 -3 -8 121.36 8.11
 7 -3 -8 2026.24 30.76
 8 -3 -8 62.99 6.82
 9 -3 -8 652.69 18.4
 10 -3 -8 104.86 8.57
 11 -3 -8 218.21 12.15
 12 -3 -8 33.72 12.08
 13 -3 -8 5.27 11.99
 13 -4 -8 25.65 12.76
 12 -4 -8 27.61 11.93
 11 -4 -8 12.49 10.77
 10 -4 -8 334.89 14.1
 9 -4 -8 19.43 9.44
 8 -4 -8 867.76 21.12
 7 -4 -8 1.62 8.22
 6 -4 -8 649.66 17.29
 5 -4 -8 23.05 8.05
 4 -4 -8 715.08 17.79
 3 -4 -8 17.17 8
 2 -4 -8 153.58 8.78
 1 -4 -8 89.3 6.98
 0 -4 -8 -0.68 7.93
 -1 -4 -8 57.25 6.16
 -2 -4 -8 -1.3 9.42
 -3 -4 -8 110.53 9.03
 -4 -4 -8 14.55 10.74
 -5 -4 -8 39.97 6.47
 -6 -4 -8 9.39 12.72
 -5 -5 -8 2.12 11.96
 -4 -5 -8 65.63 7.12
 -3 -5 -8 0.59 10.18
 -2 -5 -8 94.79 8.11
 -1 -5 -8 8.99 9.1
 0 -5 -8 2.48 8.32
 1 -5 -8 19.22 8.39
 2 -5 -8 23.89 8.35
 3 -5 -8 454.57 14.64
 4 -5 -8 29 4.63
 5 -5 -8 551.81 16.07
 6 -5 -8 15.31 8.61
 7 -5 -8 678.08 18.42
 8 -5 -8 95.52 8.02
 9 -5 -8 74.09 7.24
 10 -5 -8 33.61 5.73
 11 -5 -8 10.4 10.52
 12 -5 -8 250.46 13.9
 13 -5 -8 4.03 12.24
 13 -6 -8 34.17 13.25
 12 -6 -8 60.92 7.45
 11 -6 -8 18.85 10.86
 10 -6 -8 8.79 9.9
 9 -6 -8 177.28 10.29
 8 -6 -8 49.17 6.21
 7 -6 -8 312.04 12.96
 6 -6 -8 273 12.05
 5 -6 -8 293.37 12.28
 4 -6 -8 670.58 18.43
 3 -6 -8 68.42 6.74
 2 -6 -8 119.07 8.36
 1 -6 -8 -3.03 8.36
 0 -6 -8 103.47 8
 -1 -6 -8 -0.12 9.8
 -2 -6 -8 32.08 10.93
 -3 -6 -8 29.4 11.52
 -4 -6 -8 5.43 11.73
 -5 -6 -8 20.5 12.96
 -4 -7 -8 -0.03 12.03
 -3 -7 -8 4.9 11.2
 -2 -7 -8 1.48 10.41
 -1 -7 -8 72.88 7.42
 0 -7 -8 77.79 7.71
 1 -7 -8 20.76 9.35
 2 -7 -8 77.4 7
 3 -7 -8 201.93 10.59
 4 -7 -8 394.73 14.9
 5 -7 -8 8.88 8.68
 6 -7 -8 220.98 11.02
 7 -7 -8 -3.02 9.11
 8 -7 -8 144.09 9.65
 9 -7 -8 80.03 7.48
 10 -7 -8 2.28 10.12
 11 -7 -8 30.8 11.64
 12 -7 -8 13.42 11.97
 13 -7 -8 119.61 10.98
 13 -8 -8 5.64 12.93
 12 -8 -8 82.53 8.41
 11 -8 -8 15.02 11.5
 10 -8 -8 163.19 10.61
 9 -8 -8 40.59 6.29
 8 -8 -8 20.68 10.04
 7 -8 -8 114.85 8.55
 6 -8 -8 -0.6 9.23
 5 -8 -8 297.17 13
 4 -8 -8 10.72 9.57
 3 -8 -8 332.54 14.08
 2 -8 -8 1.92 9.25
 1 -8 -8 161.25 10.16
 0 -8 -8 15.28 10.64
 -1 -8 -8 38.34 5.87
 -2 -8 -8 1.9 10.91
 -3 -8 -8 1.44 11.74
 -3 -9 -8 3.39 12.68
 -2 -9 -8 3.71 11.9
 -1 -9 -8 4.87 11.21
 0 -9 -8 242.26 13.13
 1 -9 -8 0.71 10.4
 2 -9 -8 188.55 11.06
 3 -9 -8 8.04 9.79
 4 -9 -8 307.31 13.57
 5 -9 -8 52.7 6.7
 6 -9 -8 20.8 10.15
 7 -9 -8 62.25 6.63
 8 -9 -8 15.74 10.33
 9 -9 -8 236.17 12.7
 10 -9 -8 16.57 11.54
 11 -9 -8 369.53 16.48
 12 -9 -8 -7.77 12.97
 12 -10 -8 57.51 7.56
 11 -10 -8 205.15 13.05
 10 -10 -8 139.44 10.7
 9 -10 -8 10.08 11.25
 8 -10 -8 55.46 6.69
 7 -10 -8 6.79 10.48
 6 -10 -8 37.3 5.58
 5 -10 -8 9.65 10.28
 4 -10 -8 90.69 7.95
 3 -10 -8 32.7 11.17
 2 -10 -8 55.62 7.53
 1 -10 -8 165.71 11.66
 0 -10 -8 4.34 12.02
 -1 -10 -8 43.31 7.33
 -2 -10 -8 3.97 12.37
 -1 -11 -8 10.61 13.47
 0 -11 -8 35.21 13.3
 1 -11 -8 27.44 12.82
 2 -11 -8 4.26 11.28
 3 -11 -8 11.85 11.31
 4 -11 -8 -0.97 10.67
 5 -11 -8 79.67 7.58
 6 -11 -8 20.88 11.25
 7 -11 -8 47.68 6.61
 8 -11 -8 31.42 11.81
 9 -11 -8 46.32 6.54
 10 -11 -8 235.33 13.73
 11 -11 -8 53.97 8.44
 10 -12 -8 1 12.75
 9 -12 -8 49.17 7.15
 8 -12 -8 5.32 11.79
 7 -12 -8 229.98 13.55
 6 -12 -8 11.17 11.75
 5 -12 -8 14.1 11.81
 4 -12 -8 4.13 11.53
 3 -12 -8 1.73 11.49
 2 -12 -8 34.06 12.85
 1 -12 -8 5.23 12.67
 3 -13 -8 13.33 12.68
 4 -13 -8 4.32 12.22
 5 -13 -8 5.79 12.3
 6 -13 -8 69.67 8.36
 7 -13 -8 1.89 12.63
 8 -13 -8 95.44 9.52
 9 -13 -8 14.57 13.18
 4 -12 -9 2.81 12.68
 5 -12 -9 8.58 12.68
 6 -12 -9 17.02 12.9
 7 -12 -9 79.43 9.29
 8 -12 -9 64.81 8.73
 9 -11 -9 17.95 12.69
 8 -11 -9 6.99 12.47
 7 -11 -9 39.39 13.25
 6 -11 -9 3.74 12.03
 5 -11 -9 14.53 12.4
 4 -11 -9 -3.51 11.94
 3 -11 -9 2.68 12.02
 2 -11 -9 8.75 12.67
 0 -10 -9 -2.12 13.26
 1 -10 -9 77.54 8.69
 2 -10 -9 3.43 11.67
 3 -10 -9 8.74 11.4
 4 -10 -9 -0.8 11.18
 5 -10 -9 9.04 11.14
 6 -10 -9 32.63 12.39
 7 -10 -9 24.08 12
 8 -10 -9 45.64 6.83
 9 -10 -9 12.11 12.19
 10 -10 -9 44.03 7.2
 11 -9 -9 389.81 18.14
 10 -9 -9 13.19 12.51
 9 -9 -9 133.13 10.08
 8 -9 -9 4.27 11.35
 7 -9 -9 79.95 8
 6 -9 -9 2.09 10.78
 5 -9 -9 12.31 10.99
 4 -9 -9 18.83 11.06
 3 -9 -9 2.01 10.58
 2 -9 -9 48.64 6.63
 1 -9 -9 7.14 11.67
 0 -9 -9 96.81 10.38
 -1 -9 -9 -1.96 12.87
 -2 -8 -9 2.37 12.44
 -1 -8 -9 28.39 13.06
 0 -8 -9 35.3 12.97
 1 -8 -9 95.17 9.56
 2 -8 -9 2.51 10.64
 3 -8 -9 174.52 10.72
 4 -8 -9 -1.61 10.54
 5 -8 -9 232.14 12.08
 6 -8 -9 16.05 10.48
 7 -8 -9 22.69 10.68
 8 -8 -9 8.99 10.8
 9 -8 -9 39.24 6.61
 10 -8 -9 326.93 15.87
 11 -8 -9 32.89 6.89
 12 -8 -9 62.55 8.02
 12 -7 -9 73.2 8.51
 11 -7 -9 87.86 8.93
 10 -7 -9 59.47 7.48
 9 -7 -9 38.87 6.67
 8 -7 -9 76.73 7.37
 7 -7 -9 -3.84 9.78
 6 -7 -9 46.51 5.96
 5 -7 -9 61.21 7.14
 4 -7 -9 182.75 10.96
 3 -7 -9 180.51 10.95
 2 -7 -9 84.8 8.2
 1 -7 -9 52.37 6.74
 0 -7 -9 21.45 11.88
 -1 -7 -9 30.14 12.44
 -2 -7 -9 2.44 11.69
 -3 -7 -9 1.26 12.61
 -3 -6 -9 3.18 11.89
 -2 -6 -9 1.02 11.19
 -1 -6 -9 -0.99 10.59
 0 -6 -9 160.95 10.89
 1 -6 -9 2.91 9.66
 2 -6 -9 192.06 10.75
 3 -6 -9 10.71 9.57
 4 -6 -9 286.37 13.46
 5 -6 -9 76.79 7.31
 6 -6 -9 54.66 5.98
 7 -6 -9 29.66 5.11
 8 -6 -9 12.74 9.97
 9 -6 -9 96.19 8.56
 10 -6 -9 21.06 11.3
 11 -6 -9 36.78 12.62
 12 -6 -9 8.56 12.41
 13 -5 -9 8.27 13.2
 12 -5 -9 113.58 9.97
 11 -5 -9 0.95 11.19
 10 -5 -9 22.41 10.98
 9 -5 -9 -0.42 10.22
 8 -5 -9 23.08 10.11
 7 -5 -9 204.96 11.04
 6 -5 -9 -0.15 8.78
 5 -5 -9 259.1 12.14
 4 -5 -9 7.86 9.17
 3 -5 -9 420.04 14.93
 2 -5 -9 15.52 9.16
 1 -5 -9 65.52 6.53
 0 -5 -9 15.19 10.09
 -1 -5 -9 63.64 7.46
 -2 -5 -9 4.88 10.86
 -3 -5 -9 0.84 11.19
 -4 -5 -9 7.36 12.2
 -5 -4 -9 15.17 13.13
 -4 -4 -9 -3.68 12.05
 -3 -4 -9 5.99 10.92
 -2 -4 -9 -1.21 10.29
 -1 -4 -9 44.82 5.96
 0 -4 -9 7.57 9.22
 1 -4 -9 9.63 8.92
 2 -4 -9 66.85 6.68
 3 -4 -9 65.24 6.79
 4 -4 -9 691.96 18.83
 5 -4 -9 125.13 8.64
 6 -4 -9 418.66 15.09
 7 -4 -9 17.41 9.52
 8 -4 -9 247.64 12.36
 9 -4 -9 27.52 10.34
 10 -4 -9 16.62 10.6
 11 -4 -9 50.36 7.03
 12 -4 -9 14.76 12.32
 13 -4 -9 102.07 9.65
 13 -3 -9 3.98 12.76
 12 -3 -9 38.75 6.63
 11 -3 -9 51.12 6.77
 10 -3 -9 19.74 10.5
 9 -3 -9 151.94 9.77
 8 -3 -9 88.44 8.08
 7 -3 -9 336.08 13.65
 6 -3 -9 358.62 14.01
 5 -3 -9 315.05 12.56
 4 -3 -9 275.72 12.29
 3 -3 -9 418.49 14.53
 2 -3 -9 195.82 10.02
 1 -3 -9 14.18 8.69
 0 -3 -9 4.73 8.59
 -1 -3 -9 7.31 9.24
 -2 -3 -9 21.45 10.47
 -3 -3 -9 38.48 6.19
 -4 -3 -9 0.97 11.23
 -5 -3 -9 15.74 12.52
 -6 -2 -9 14.86 12.91
 -5 -2 -9 -2.07 11.93
 -4 -2 -9 70.75 8.25
 -3 -2 -9 1.09 10.47
 -2 -2 -9 214.73 12.27
 -1 -2 -9 3.21 8.7
 0 -2 -9 36.35 4.7
 1 -2 -9 42.29 5.38
 2 -2 -9 51.67 5.58
 3 -2 -9 217.57 10.58
 4 -2 -9 4.79 7.94
 5 -2 -9 160.46 9.14
 6 -2 -9 26.67 5.2
 7 -2 -9 311.89 13.03
 8 -2 -9 161.68 10.1
 9 -2 -9 215.24 11.65
 10 -2 -9 63.67 7.26
 11 -2 -9 12.77 11.19
 12 -2 -9 119.21 9.96
 13 -2 -9 2.63 12.69
 13 -1 -9 21.15 13.13
 12 -1 -9 26.12 12.44
 11 -1 -9 54.29 7.19
 10 -1 -9 529.9 17.65
 9 -1 -9 11.95 9.75
 8 -1 -9 793.64 20.42
 7 -1 -9 63.56 6.87
 6 -1 -9 468.64 15.26
 5 -1 -9 26.17 4.51
 4 -1 -9 125.8 8.04
 3 -1 -9 14.35 7.66
 2 -1 -9 9.53 7.71
 1 -1 -9 124.69 8.27
 0 -1 -9 -0.91 7.98
 -1 -1 -9 103.49 7.92
 -2 -1 -9 4.6 9.4
 -3 -1 -9 293.97 14.17
 -4 -1 -9 10.53 10.82
 -5 -1 -9 55.33 7.78
 -6 -1 -9 -2.22 12.22
 -6 0 -9 4.85 12.05
 -5 0 -9 19.3 11.47
 -4 0 -9 80.36 8.78
 -3 0 -9 26.36 10.64
 -2 0 -9 246.94 12.16
 -1 0 -9 3.19 8.27
 0 0 -9 211.43 10.66
 1 0 -9 129.04 8.51
 2 0 -9 222.76 10.42
 3 0 -9 192.37 9.51
 4 0 -9 182.57 9.43
 5 0 -9 119.88 8.2
 6 0 -9 92.36 7.7
 7 0 -9 1073.36 23.35
 8 0 -9 88.15 7.92
 9 0 -9 430.86 15.93
 10 0 -9 5.6 10.31
 11 0 -9 164.89 11.58
 12 0 -9 17.26 12.38
 13 0 -9 44.4 7.33
 12 1 -9 185.23 12.32
 11 1 -9 7.4 11.22
 10 1 -9 362.32 15.46
 9 1 -9 187.13 11.06
 8 1 -9 204.87 10.93
 7 1 -9 325.13 13.19
 6 1 -9 251.46 11.19
 5 1 -9 471.43 14.99
 4 1 -9 5.26 7.24
 3 1 -9 163.86 8.92
 2 1 -9 189.27 9.52
 1 1 -9 1054.63 22.42
 0 1 -9 57.15 6.39
 -1 1 -9 250.11 11.77
 -2 1 -9 88.55 7.91
 -3 1 -9 182.52 10.73
 -4 1 -9 73.81 7.86
 -5 1 -9 3.32 10.82
 -6 1 -9 11.91 11.67
 -7 1 -9 -3.21 12.56
 -7 2 -9 6.36 12.35
 -6 2 -9 2.12 11.29
 -5 2 -9 49.08 6.49
 -4 2 -9 -5.49 9.92
 -3 2 -9 105.82 8.79
 -2 2 -9 41.51 5.37
 -1 2 -9 208.3 10.43
 0 2 -9 137.03 8.63
 1 2 -9 463.94 14.58
 2 2 -9 -1.37 7.51
 3 2 -9 74.56 6.44
 4 2 -9 210.2 10.33
 5 2 -9 4.7 7.6
 6 2 -9 354.79 13.36
 7 2 -9 25.69 8.9
 8 2 -9 226.32 11.55
 9 2 -9 43.3 6.14
 10 2 -9 213.13 12.3
 11 2 -9 100.42 9.19
 12 2 -9 104.69 10.45
 12 3 -9 22.58 13.38
 11 3 -9 158.54 11.5
 10 3 -9 61.91 7.41
 9 3 -9 122.39 9.15
 8 3 -9 5.8 8.99
 7 3 -9 12.37 8.71
 6 3 -9 -0.05 8.16
 5 3 -9 268.7 11.45
 4 3 -9 205.7 10.07
 3 3 -9 87.52 6.6
 2 3 -9 169.06 8.91
 1 3 -9 -1.12 7.57
 0 3 -9 389.36 13.87
 -1 3 -9 -3.2 8.09
 -2 3 -9 124.17 8.42
 -3 3 -9 2.59 8.71
 -4 3 -9 27.09 10.17
 -5 3 -9 17.23 10.61
 -6 3 -9 -0.01 11.12
 -7 3 -9 12.24 12.42
 -7 4 -9 -3.73 11.93
 -6 4 -9 17.08 11.27
 -5 4 -9 -6.33 10.35
 -4 4 -9 1.75 9.29
 -3 4 -9 26.88 9.4
 -2 4 -9 9.91 8.38
 -1 4 -9 190.59 10.04
 0 4 -9 23.12 4.17
 1 4 -9 450.46 14.22
 2 4 -9 1.77 7.44
 3 4 -9 719.66 17.71
 4 4 -9 47.96 5.63
 5 4 -9 270.56 11.68
 6 4 -9 -0.15 8.34
 7 4 -9 19.4 9.09
 8 4 -9 169.72 10.09
 9 4 -9 -0.48 10.07
 10 4 -9 249.47 13.4
 11 4 -9 -1.22 12.01
 12 4 -9 255.63 14.6
 11 5 -9 67.01 8.11
 10 5 -9 13.98 11.29
 9 5 -9 101.3 8.74
 8 5 -9 119 9.25
 7 5 -9 -4.33 9.08
 6 5 -9 277.64 12.32
 5 5 -9 -0.93 8.29
 4 5 -9 526.61 15.83
 3 5 -9 34.89 5.41
 2 5 -9 534.24 15.68
 1 5 -9 32.81 4.59
 0 5 -9 126.36 8.35
 -1 5 -9 52.78 5.82
 -2 5 -9 3.88 8.32
 -3 5 -9 1.08 8.56
 -4 5 -9 -0.33 9.13
 -5 5 -9 4.14 10.03
 -6 5 -9 13.68 11.26
 -7 5 -9 2.78 12
 -8 6 -9 -1.52 12.83
 -7 6 -9 30.91 12.61
 -6 6 -9 6.75 11.1
 -5 6 -9 27.62 10.82
 -4 6 -9 2.6 9.4
 -3 6 -9 6.4 9.05
 -2 6 -9 37.79 5.26
 -1 6 -9 -0.08 7.98
 0 6 -9 87.08 6.99
 1 6 -9 171.61 9.04
 2 6 -9 170.38 9.61
 3 6 -9 325.42 12.7
 4 6 -9 78.17 6.97
 5 6 -9 318.84 13.02
 6 6 -9 163.98 10.1
 7 6 -9 77.21 7.79
 8 6 -9 8.88 10.18
 9 6 -9 92.72 8.35
 10 6 -9 -2.55 11.63
 11 6 -9 12.83 12.57
 11 7 -9 1 12.67
 10 7 -9 10.83 11.92
 9 7 -9 60.15 7.2
 8 7 -9 167.56 10.96
 7 7 -9 138.1 9.71
 6 7 -9 53.23 6.47
 5 7 -9 400.28 14.52
 4 7 -9 39.57 5.3
 3 7 -9 355.37 13.47
 2 7 -9 46.71 5.62
 1 7 -9 20.95 8.34
 0 7 -9 1.14 7.72
 -1 7 -9 1.67 8.35
 -2 7 -9 90.94 7.52
 -3 7 -9 2.71 8.93
 -4 7 -9 59.11 6.91
 -5 7 -9 1.51 9.98
 -6 7 -9 113.74 9.79
 -7 7 -9 0.83 11.68
 -8 7 -9 23.03 13.43
 -8 8 -9 -2.01 13.27
 -7 8 -9 27.74 13
 -6 8 -9 2.79 11.06
 -5 8 -9 84.43 8.19
 -4 8 -9 15.73 9.82
 -3 8 -9 155.91 9.84
 -2 8 -9 2.98 8.67
 -1 8 -9 33.23 4.91
 0 8 -9 -0.54 7.99
 1 8 -9 15.57 8.3
 2 8 -9 98.53 7.73
 3 8 -9 18.18 8.88
 4 8 -9 226.72 11.01
 5 8 -9 -7.62 9.44
 6 8 -9 556.8 17.75
 7 8 -9 3.32 10.17
 8 8 -9 196.76 11.5
 9 8 -9 2.42 11.42
 10 8 -9 26.24 13.22
 10 9 -9 0.85 12.75
 9 9 -9 103.02 9.62
 8 9 -9 1.36 11.14
 7 9 -9 128.51 9.8
 6 9 -9 1.56 10.03
 5 9 -9 226.37 11.74
 4 9 -9 -2.47 9.07
 3 9 -9 59.68 6.35
 2 9 -9 65.7 6.55
 1 9 -9 7.7 8.65
 0 9 -9 74.41 6.73
 -1 9 -9 2.04 8.44
 -2 9 -9 228.65 11.72
 -3 9 -9 2.7 9.47
 -4 9 -9 80.33 7.95
 -5 9 -9 14.64 10.89
 -6 9 -9 55.97 7.38
 -7 9 -9 0.76 11.96
 -7 10 -9 -2.13 12.36
 -6 10 -9 25.77 12.06
 -5 10 -9 8.22 10.87
 -4 10 -9 60.93 7.24
 -3 10 -9 117.27 8.93
 -2 10 -9 103.11 7.9
 -1 10 -9 18.24 9.48
 0 10 -9 20.85 9.26
 1 10 -9 14.98 9.11
 2 10 -9 8.34 8.93
 3 10 -9 17.7 9.52
 4 10 -9 24.49 9.85
 5 10 -9 33.43 5.32
 6 10 -9 125.55 9.54
 7 10 -9 26.26 11.8
 8 10 -9 118.96 10.52
 9 10 -9 21.27 13.03
 8 11 -9 105.39 9.8
 7 11 -9 28.81 12.44
 6 11 -9 116.22 9.62
 5 11 -9 8.61 10.67
 4 11 -9 23.96 10.43
 3 11 -9 -1.01 9.75
 2 11 -9 14.96 9.66
 1 11 -9 15.59 9.62
 0 11 -9 2.9 9.38
 -1 11 -9 68 7.1
 -2 11 -9 4.47 9.62
 -3 11 -9 165.2 10.81
 -4 11 -9 -0.95 10.91
 -5 11 -9 61.66 7.72
 -6 11 -9 -2.62 11.57
 -7 11 -9 -3.4 12.44
 -7 12 -9 1.43 12.43
 -6 12 -9 4.25 12.08
 -5 12 -9 0.71 11.25
 -4 12 -9 35.88 6.28
 -3 12 -9 1.65 10.36
 -2 12 -9 40.75 6.34
 -1 12 -9 1.76 9.93
 0 12 -9 57.51 7.09
 1 12 -9 3.92 9.79
 2 12 -9 10.49 9.96
 3 12 -9 -1.4 10.2
 4 12 -9 0.13 10.29
 5 12 -9 31.56 11.7
 6 12 -9 11.66 11.91
 7 12 -9 73.1 8.35
 7 13 -9 -2.59 13.05
 6 13 -9 27.9 12.93
 5 13 -9 -1.29 11.88
 4 13 -9 1.79 11.09
 3 13 -9 21 11.15
 2 13 -9 6.04 10.57
 1 13 -9 67.03 7.38
 0 13 -9 9.34 10.49
 -1 13 -9 129.87 9.72
 -2 13 -9 -5.57 10.95
 -3 13 -9 23.9 11.67
 -4 13 -9 0.31 11.12
 -5 13 -9 16.07 11.84
 -6 13 -9 2.44 11.98
 -6 14 -9 1.06 12.55
 -5 14 -9 2.92 12.09
 -4 14 -9 2.67 11.58
 -3 14 -9 3.31 11.27
 -2 14 -9 34.39 6.15
 -1 14 -9 31.64 12.04
 0 14 -9 51.21 7
 1 14 -9 12.79 11.77
 2 14 -9 80.52 8.23
 3 14 -9 13.96 11.48
 4 14 -9 19.94 12.26
 5 14 -9 4.76 12.09
 6 14 -9 4.8 12.73
 4 15 -9 5.22 12.39
 3 15 -9 9.93 12.43
 2 15 -9 23.82 12.45
 1 15 -9 3.03 11.61
 0 15 -9 33.05 12.57
 -1 15 -9 5.2 11.79
 -2 15 -9 5.49 11.75
 -3 15 -9 1.6 11.62
 -4 15 -9 -4.14 12.23
 -5 15 -9 3.02 12.48
 -4 16 -9 5.05 12.56
 -3 16 -9 -0.18 12.26
 -2 16 -9 -3.15 12.24
 -1 16 -9 38.83 13.33
 0 16 -9 5.22 12
 1 16 -9 20.35 12.83
 2 16 -9 -7.97 12.92
 3 16 -9 20.33 13.5
 -3 15 -10 -0.42 13.28
 -2 15 -10 7.13 12.84
 -1 15 -10 14.37 12.84
 0 15 -10 13.57 12.88
 1 15 -10 10.71 12.62
 2 15 -10 11.81 12.73
 3 15 -10 5.96 12.89
 4 14 -10 6.79 12.5
 3 14 -10 9.8 12.16
 2 14 -10 33.1 12.53
 1 14 -10 10.32 11.82
 0 14 -10 39.13 6.55
 -1 14 -10 17.67 12.37
 -2 14 -10 14.19 12.67
 -3 14 -10 13.05 12.66
 -4 14 -10 -3.25 13.41
 -5 13 -10 8.53 12.9
 -4 13 -10 18.52 13.22
 -3 13 -10 24.98 12.6
 -2 13 -10 32.82 12.66
 -1 13 -10 23.26 12.14
 0 13 -10 7.16 11.34
 1 13 -10 24.77 11.68
 2 13 -10 -0.3 11.35
 3 13 -10 8.55 11.53
 4 13 -10 -0.59 11.95
 5 13 -10 -0.43 12.68
 6 13 -10 19.63 13.34
 7 12 -10 39.79 14.14
 6 12 -10 -1.13 12.23
 5 12 -10 49.53 7.09
 4 12 -10 2.95 11.06
 3 12 -10 10.53 11.02
 2 12 -10 7.5 10.87
 1 12 -10 -4.7 10.78
 0 12 -10 32.54 5.71
 -1 12 -10 8.12 10.88
 -2 12 -10 59.5 7.17
 -3 12 -10 4.35 11.67
 -4 12 -10 29.46 12.63
 -5 12 -10 1.71 12.45
 -6 11 -10 2.48 12.77
 -5 11 -10 18.18 12.69
 -4 11 -10 -2.99 11.65
 -3 11 -10 50.07 6.74
 -2 11 -10 -0.17 10.53
 -1 11 -10 33.44 11.36
 0 11 -10 1.26 9.99
 1 11 -10 11.33 10.37
 2 11 -10 53.95 6.53
 3 11 -10 4.01 10.26
 4 11 -10 78.42 7.94
 5 11 -10 -2.05 11.42
 6 11 -10 116.96 10.25
 7 11 -10 2.21 12.3
 8 10 -10 31.64 13.12
 7 10 -10 12.28 11.76
 6 10 -10 18.03 11.86
 5 10 -10 61.48 7.2
 4 10 -10 7.59 10.42
 3 10 -10 35.37 5.43
 2 10 -10 -0.21 9.73
 1 10 -10 7.41 9.96
 0 10 -10 4.75 9.69
 -1 10 -10 0.64 9.81
 -2 10 -10 19.3 10.79
 -3 10 -10 6.35 10.89
 -4 10 -10 18.39 11.93
 -5 10 -10 3.36 11.8
 -6 10 -10 33.81 7.38
 -6 9 -10 19.71 13.13
 -5 9 -10 14.75 11.95
 -4 9 -10 16.36 11.37
 -3 9 -10 -1.17 10.64
 -2 9 -10 15.5 10.44
 -1 9 -10 -2.23 9.76
 0 9 -10 11.13 9.61
 1 9 -10 7 9.32
 2 9 -10 64.73 7.12
 3 9 -10 29 10.72
 4 9 -10 31.87 5.69
 5 9 -10 128 9.54
 6 9 -10 55.6 7.44
 7 9 -10 25.73 12.05
 8 9 -10 -0.08 11.96
 9 9 -10 11.52 12.84
 9 8 -10 0.57 12.21
 8 8 -10 67.7 8.53
 7 8 -10 -1.99 10.95
 6 8 -10 310.54 14.23
 5 8 -10 4.69 9.94
 4 8 -10 238.8 12.06
 3 8 -10 28.02 5.68
 2 8 -10 235.94 11.9
 1 8 -10 4.85 8.96
 0 8 -10 6.23 9.17
 -1 8 -10 2.07 9.5
 -2 8 -10 -0.55 9.76
 -3 8 -10 15.37 10.83
 -4 8 -10 4.95 10.82
 -5 8 -10 16.19 11.97
 -6 8 -10 16.43 12.87
 -6 7 -10 17.62 12.71
 -5 7 -10 4.41 11.33
 -4 7 -10 3.18 10.75
 -3 7 -10 -7.5 10.28
 -2 7 -10 1.7 9.53
 -1 7 -10 30.84 5.33
 0 7 -10 3.54 9.1
 1 7 -10 67.92 6.83
 2 7 -10 12.94 9.08
 3 7 -10 278.33 13
 4 7 -10 18.64 9.79
 5 7 -10 165 10.2
 6 7 -10 2.49 9.74
 7 7 -10 20.28 10.91
 8 7 -10 113.18 9.42
 9 7 -10 -0.17 12.28
 10 7 -10 39.37 6.59
 10 6 -10 23.15 12.87
 9 6 -10 35.9 12.7
 8 6 -10 25 11.18
 7 6 -10 -0.27 9.85
 6 6 -10 13.16 9.82
 5 6 -10 47.23 6.22
 4 6 -10 119.57 8.87
 3 6 -10 103.22 8.11
 2 6 -10 156.23 9.75
 1 6 -10 40.56 5.68
 0 6 -10 119.35 8.84
 -1 6 -10 13.62 9.75
 -2 6 -10 27.54 4.9
 -3 6 -10 2.16 9.82
 -4 6 -10 1.19 10.38
 -5 6 -10 4.83 11.2
 -6 6 -10 1.62 11.95
 -6 5 -10 3.85 12.19
 -5 5 -10 2.37 11.22
 -4 5 -10 -1.02 10.62
 -3 5 -10 7.21 10.31
 -2 5 -10 7.27 9.45
 -1 5 -10 81.92 7.8
 0 5 -10 142.91 9.37
 1 5 -10 117.42 8.6
 2 5 -10 56.85 5.97
 3 5 -10 48.06 6.04
 4 5 -10 202.67 10.93
 5 5 -10 7.85 9
 6 5 -10 42.69 5.68
 7 5 -10 -1.2 9.91
 8 5 -10 -3.94 10.37
 9 5 -10 76.68 8.08
 10 5 -10 1.05 11.82
 11 5 -10 81.53 9.23
 11 4 -10 -1.54 12.7
 10 4 -10 196.56 12.49
 9 4 -10 3.48 10.81
 8 4 -10 27.28 10.65
 7 4 -10 37.68 5.68
 6 4 -10 5.7 9.22
 5 4 -10 105.15 7.85
 4 4 -10 9.39 8.67
 3 4 -10 58.85 6.09
 2 4 -10 105.19 7.98
 1 4 -10 333.49 13.91
 0 4 -10 79.38 7.93
 -1 4 -10 192.51 10.87
 -2 4 -10 40.09 5.8
 -3 4 -10 39.15 5.99
 -4 4 -10 11.68 10.93
 -5 4 -10 2.35 11.44
 -6 4 -10 4.64 12.42
 -6 3 -10 1.13 12.32
 -5 3 -10 12.64 12.02
 -4 3 -10 17.64 11.38
 -3 3 -10 3.77 9.99
 -2 3 -10 116.09 8.81
 -1 3 -10 2.48 9.15
 0 3 -10 419.22 15.45
 1 3 -10 -1.11 9.03
 2 3 -10 211.52 10.66
 3 3 -10 -1.04 8.34
 4 3 -10 45.31 5.73
 5 3 -10 15.36 9.04
 6 3 -10 -0.68 8.95
 7 3 -10 207.7 11.29
 8 3 -10 7.28 10.01
 9 3 -10 230.99 12.95
 10 3 -10 7.06 11.68
 11 3 -10 130.77 10.73
 12 2 -10 33.22 13.99
 11 2 -10 78.12 8.85
 10 2 -10 171.38 11.79
 9 2 -10 27.54 11.33
 8 2 -10 291.36 13.5
 7 2 -10 44.49 6.6
 6 2 -10 96.17 7.76
 5 2 -10 -1.83 8.53
 4 2 -10 64.16 6.29
 3 2 -10 1.2 8.14
 2 2 -10 26.17 9.26
 1 2 -10 253.27 12.31
 0 2 -10 49.17 6.01
 -1 2 -10 34.62 5.24
 -2 2 -10 -2.49 9.75
 -3 2 -10 103.8 9.22
 -4 2 -10 -1.89 11.21
 -5 2 -10 18.41 12.46
 -6 2 -10 -0.86 12.46
 -5 1 -10 6.59 11.96
 -4 1 -10 30.64 12.59
 -3 1 -10 27.95 11.55
 -2 1 -10 120.66 9.26
 -1 1 -10 -0.07 9.34
 0 1 -10 7.58 9.03
 1 1 -10 126.9 8.87
 2 1 -10 8.96 8.63
 3 1 -10 34.34 4.93
 4 1 -10 2.17 8.32
 5 1 -10 45.79 5.9
 6 1 -10 127.71 9.33
 7 1 -10 154.53 10
 8 1 -10 119.12 9.09
 9 1 -10 135.74 9.92
 10 1 -10 157.88 10.93
 11 1 -10 -0.58 11.77
 12 1 -10 91.58 9.47
 12 0 -10 20.9 13.15
 11 0 -10 87.36 9.03
 10 0 -10 6.01 11.3
 9 0 -10 250.11 13.02
 8 0 -10 -1.59 9.77
 7 0 -10 449.15 16.25
 6 0 -10 4.29 8.73
 5 0 -10 87.59 7.55
 4 0 -10 77.06 6.72
 3 0 -10 54.1 5.61
 2 0 -10 48.34 5.93
 1 0 -10 -4.79 9.12
 0 0 -10 5.2 9.07
 -1 0 -10 15.78 9.78
 -2 0 -10 60.07 7.42
 -3 0 -10 6.39 11.18
 -4 0 -10 15.6 11.72
 -5 0 -10 2 12.22
 -5 -1 -10 18.47 13.43
 -4 -1 -10 -5.06 12.17
 -3 -1 -10 26.88 12.45
 -2 -1 -10 2.65 10.45
 -1 -1 -10 18.22 10.16
 0 -1 -10 0.38 9.07
 1 -1 -10 9.25 9.01
 2 -1 -10 7.49 8.71
 3 -1 -10 3.21 8.66
 4 -1 -10 196.03 10.56
 5 -1 -10 4.56 8.85
 6 -1 -10 178.66 10.49
 7 -1 -10 23.83 10.45
 8 -1 -10 173.57 11.2
 9 -1 -10 20.53 10.69
 10 -1 -10 122.95 9.59
 11 -1 -10 37.88 12.67
 12 -1 -10 24.71 13.38
 12 -2 -10 126.72 10.78
 11 -2 -10 -2.29 11.89
 10 -2 -10 31.05 11.71
 9 -2 -10 18.71 10.92
 8 -2 -10 107.77 9.07
 7 -2 -10 380.82 15.12
 6 -2 -10 12.37 9.65
 5 -2 -10 330.95 13.85
 4 -2 -10 18.72 9.97
 3 -2 -10 133.66 9.66
 2 -2 -10 1.97 8.78
 1 -2 -10 0.85 9.13
 0 -2 -10 2.11 9.34
 -1 -2 -10 -0.24 10.11
 -2 -2 -10 16.67 11.01
 -3 -2 -10 -0.11 11.28
 -4 -2 -10 26.06 13.14
 -4 -3 -10 6.17 12.6
 -3 -3 -10 2.81 11.68
 -2 -3 -10 15.61 11.53
 -1 -3 -10 2.64 10.62
 0 -3 -10 63.54 7.16
 1 -3 -10 17.08 9.85
 2 -3 -10 91.98 8.01
 3 -3 -10 111.77 8.91
 4 -3 -10 256.57 12.86
 5 -3 -10 177.34 10.48
 6 -3 -10 144.69 9.4
 7 -3 -10 242.88 12.57
 8 -3 -10 -0.88 10.36
 9 -3 -10 112.01 9.41
 10 -3 -10 11.08 11.45
 11 -3 -10 14.91 12.06
 12 -3 -10 38.53 13.66
 12 -4 -10 12.09 13.06
 11 -4 -10 17.95 12.67
 10 -4 -10 9.64 11.37
 9 -4 -10 27.7 11.75
 8 -4 -10 110.45 9.3
 7 -4 -10 6.61 10.22
 6 -4 -10 84.43 8.2
 5 -4 -10 8.4 9.79
 4 -4 -10 166.53 10.8
 3 -4 -10 141.59 10
 2 -4 -10 130.57 9.31
 1 -4 -10 26.59 10.56
 0 -4 -10 58.43 7.15
 -1 -4 -10 35.54 12.08
 -2 -4 -10 2.82 11.36
 -3 -4 -10 3.52 11.96
 -2 -5 -10 -1.36 11.92
 -1 -5 -10 30.31 12.42
 0 -5 -10 24.01 11.87
 1 -5 -10 58.62 6.96
 2 -5 -10 5.57 10.04
 3 -5 -10 187.1 11.37
 4 -5 -10 1.92 10.26
 5 -5 -10 171.22 10.78
 6 -5 -10 -0.37 9.87
 7 -5 -10 50.78 6.92
 8 -5 -10 17.2 10.85
 9 -5 -10 30 11.67
 10 -5 -10 155.63 11.28
 11 -5 -10 22.21 12.52
 12 -5 -10 86.36 9.47
 11 -6 -10 295.75 15.37
 10 -6 -10 22.03 12.68
 9 -6 -10 100.12 9.48
 8 -6 -10 2.49 10.7
 7 -6 -10 37.16 6.08
 6 -6 -10 -3.99 10.46
 5 -6 -10 32.1 11.26
 4 -6 -10 176.03 11.65
 3 -6 -10 3.45 10.57
 2 -6 -10 106.68 9.18
 1 -6 -10 0.84 11.04
 0 -6 -10 130.52 10.78
 -1 -6 -10 2.5 12.2
 -2 -6 -10 9.01 12.63
 -1 -7 -10 30.06 13.85
 0 -7 -10 6.99 12.33
 1 -7 -10 56.45 7.98
 2 -7 -10 24.55 11.86
 3 -7 -10 6.16 11.05
 4 -7 -10 35.39 6.08
 5 -7 -10 5.54 10.69
 6 -7 -10 39.99 6.19
 7 -7 -10 6.74 11.07
 8 -7 -10 38.66 6.49
 9 -7 -10 11.76 12.07
 10 -7 -10 126.68 10.72
 11 -7 -10 60.6 8.66
 10 -8 -10 195.07 13.54
 9 -8 -10 22.46 12.62
 8 -8 -10 34.77 12.51
 7 -8 -10 41.48 6.75
 6 -8 -10 13.7 11.74
 5 -8 -10 26.94 12.2
 4 -8 -10 2.33 10.94
 3 -8 -10 3.75 11.21
 2 -8 -10 1.99 11.78
 1 -8 -10 10.38 12.75
 0 -8 -10 31.67 13.81
 2 -9 -10 18.26 12.91
 3 -9 -10 -1.38 12
 4 -9 -10 -1.18 11.55
 5 -9 -10 4 11.53
 6 -9 -10 1.44 11.82
 7 -9 -10 90.21 9.63
 8 -9 -10 1.59 12.1
 9 -9 -10 8.57 12.8
 8 -10 -10 61.59 8.19
 7 -10 -10 -1.71 12.75
 6 -10 -10 38.21 13.27
 5 -10 -10 1.19 12.12
 4 -10 -10 2.5 12.36
 3 -10 -10 -1.43 12.85
 4 -8 -11 -0.05 12.47
 5 -8 -11 9.19 12.81
 6 -8 -11 10.05 12.53
 7 -8 -11 37.99 6.64
 8 -8 -11 3.98 12.66
 9 -7 -11 5.49 12.86
 8 -7 -11 23.75 12.83
 7 -7 -11 1.67 12.42
 6 -7 -11 17.5 12.39
 5 -7 -11 3.1 11.85
 4 -7 -11 2.27 11.94
 3 -7 -11 2.16 12.02
 2 -7 -11 1.4 12.41
 1 -6 -11 -2.54 12.79
 2 -6 -11 14.4 12.16
 3 -6 -11 1.97 11.4
 4 -6 -11 2.88 11.21
 5 -6 -11 3.04 11.47
 6 -6 -11 -5.31 11.75
 7 -6 -11 43.76 6.75
 8 -6 -11 -1.01 11.96
 9 -6 -11 71.03 8.26
 10 -6 -11 31.85 14.39
 10 -5 -11 181.45 12.79
 9 -5 -11 3.65 12.37
 8 -5 -11 6.11 11.52
 7 -5 -11 14.23 11.73
 6 -5 -11 9.14 11.41
 5 -5 -11 59.03 7.91
 4 -5 -11 -1.29 11.54
 3 -5 -11 29.34 12
 2 -5 -11 3.39 11.43
 1 -5 -11 19.91 12.43
 0 -5 -11 16.63 13.33
 -1 -4 -11 18.31 12.98
 0 -4 -11 2.64 12.28
 1 -4 -11 32.65 6.11
 2 -4 -11 30.17 11.99
 3 -4 -11 92.13 8.82
 4 -4 -11 104.18 9.98
 5 -4 -11 60.68 7.63
 6 -4 -11 29.39 11.75
 7 -4 -11 -0.43 11.07
 8 -4 -11 22.99 11.7
 9 -4 -11 7.58 12.01
 10 -4 -11 25.55 13.1
 11 -4 -11 11.26 13.38
 11 -3 -11 29.25 13.58
 10 -3 -11 2.01 11.9
 9 -3 -11 28.11 12.3
 8 -3 -11 7.18 11.22
 7 -3 -11 18.23 11.02
 6 -3 -11 32.29 11.45
 5 -3 -11 30.48 6.26
 4 -3 -11 207.59 12.49
 3 -3 -11 11.59 11.17
 2 -3 -11 120.66 9.69
 1 -3 -11 4.65 11.07
 0 -3 -11 58.42 7.66
 -1 -3 -11 -1.1 12.17
 -2 -3 -11 1.6 12.41
 -2 -2 -11 2.96 11.98
 -1 -2 -11 20.58 12.2
 0 -2 -11 2.85 10.93
 1 -2 -11 34.05 5.66
 2 -2 -11 2.24 10.27
 3 -2 -11 244.03 13.62
 4 -2 -11 5.75 10.42
 5 -2 -11 172.89 10.94
 6 -2 -11 2.94 10.27
 7 -2 -11 114.41 9.95
 8 -2 -11 3.43 11.17
 9 -2 -11 15.1 11.66
 10 -2 -11 8.14 12.02
 11 -2 -11 -2.14 12.68
 11 -1 -11 21.02 12.9
 10 -1 -11 16.65 12.37
 9 -1 -11 6.14 11.59
 8 -1 -11 171.49 11.45
 7 -1 -11 2.34 10.74
 6 -1 -11 245.02 12.63
 5 -1 -11 6.38 10
 4 -1 -11 208.61 11.73
 3 -1 -11 1.67 10.3
 2 -1 -11 30.54 10.74
 1 -1 -11 6.05 10.19
 0 -1 -11 2.3 10.48
 -1 -1 -11 16.72 11.48
 -2 -1 -11 -0.95 11.94
 -3 -1 -11 6.94 12.66
 -3 0 -11 17.39 12.42
 -2 0 -11 12.7 11.92
 -1 0 -11 5 10.8
 0 0 -11 3.71 10.17
 1 0 -11 1.77 9.8
 2 0 -11 13.64 9.86
 3 0 -11 136.68 9.45
 4 0 -11 38.81 6.05
 5 0 -11 106.06 8.66
 6 0 -11 76.94 8.04
 7 0 -11 246.16 13.1
 8 0 -11 13.38 11.1
 9 0 -11 120.14 10.32
 10 0 -11 2.72 11.63
 11 0 -11 35.34 13.63
 11 1 -11 1.85 12.59
 10 1 -11 29.47 12.72
 9 1 -11 43.62 7.18
 8 1 -11 85.2 8.59
 7 1 -11 110.34 9.49
 6 1 -11 20.42 10.67
 5 1 -11 136.46 9.46
 4 1 -11 5.83 9.69
 3 1 -11 85.29 7.82
 2 1 -11 -3.88 9.69
 1 1 -11 21.88 10.39
 0 1 -11 2.48 10.06
 -1 1 -11 3.16 10.43
 -2 1 -11 31.01 12.16
 -3 1 -11 4.04 11.94
 -4 1 -11 15.47 13.28
 -4 2 -11 -3.04 12.48
 -3 2 -11 38.88 6.62
 -2 2 -11 2.14 11.07
 -1 2 -11 19.04 11.01
 0 2 -11 -5.28 10.08
 1 2 -11 16.47 9.98
 2 2 -11 -3 9.64
 3 2 -11 -1.64 9.57
 4 2 -11 25.45 10.14
 5 2 -11 2.72 9.63
 6 2 -11 149.38 10.36
 7 2 -11 59.9 7.35
 8 2 -11 208.42 12.32
 9 2 -11 6.06 11.86
 10 2 -11 103.38 9.46
 11 2 -11 19.09 13.3
 10 3 -11 -1.3 12.78
 9 3 -11 226.29 13.35
 8 3 -11 6.99 11.22
 7 3 -11 328.01 15.14
 6 3 -11 -0.14 10.26
 5 3 -11 58.02 6.71
 4 3 -11 4.01 9.41
 3 3 -11 26.61 10.07
 2 3 -11 -2.68 9.69
 1 3 -11 -1.08 10.02
 0 3 -11 4.56 10.2
 -1 3 -11 6.25 10.35
 -2 3 -11 22.51 11.82
 -3 3 -11 12.11 11.79
 -4 3 -11 13.33 12.54
 -4 4 -11 18.23 12.59
 -3 4 -11 31.22 6.53
 -2 4 -11 37.68 6.57
 -1 4 -11 34.58 5.64
 0 4 -11 6.3 10.11
 1 4 -11 185.73 11.34
 2 4 -11 31.58 10.54
 3 4 -11 47.77 6.05
 4 4 -11 -0.15 9.41
 5 4 -11 19.48 10.54
 6 4 -11 71.62 7.76
 7 4 -11 61.02 7.58
 8 4 -11 70.89 7.73
 9 4 -11 33.52 12.9
 10 4 -11 154.66 11.79
 10 5 -11 26.99 13.3
 9 5 -11 39.26 6.74
 8 5 -11 45.08 6.47
 7 5 -11 7.01 10.75
 6 5 -11 35.89 5.84
 5 5 -11 3.62 9.86
 4 5 -11 24.15 10.34
 3 5 -11 41.99 6.18
 2 5 -11 1.96 9.5
 1 5 -11 302.9 14.13
 0 5 -11 44.13 6.22
 -1 5 -11 54.56 7.05
 -2 5 -11 18.39 11.25
 -3 5 -11 42.83 6.9
 -4 5 -11 1.25 12.09
 -5 5 -11 9.78 13.23
 -5 6 -11 1.64 12.81
 -4 6 -11 15.61 12.28
 -3 6 -11 -1.38 11.54
 -2 6 -11 36.72 6.1
 -1 6 -11 -2.6 10.72
 0 6 -11 142.93 10.36
 1 6 -11 -2.24 10.15
 2 6 -11 56.09 6.92
 3 6 -11 6.97 9.8
 4 6 -11 21.51 10.6
 5 6 -11 23.88 10.73
 6 6 -11 5.98 10.47
 7 6 -11 13.86 10.9
 8 6 -11 1.8 11.36
 9 6 -11 15.01 12.68
 9 7 -11 -0.96 12.53
 8 7 -11 22 12.3
 7 7 -11 1.66 11.12
 6 7 -11 2 10.59
 5 7 -11 47.5 6.51
 4 7 -11 5.27 10.19
 3 7 -11 141.08 9.76
 2 7 -11 -1.88 10.13
 1 7 -11 112.17 9.04
 0 7 -11 -0.6 10.59
 -1 7 -11 36.8 6.03
 -2 7 -11 1.29 10.7
 -3 7 -11 7.47 11.38
 -4 7 -11 -0.45 11.6
 -5 7 -11 -1.28 12.82
 -5 8 -11 1.08 12.71
 -4 8 -11 -2.51 12.1
 -3 8 -11 -1.36 11.53
 -2 8 -11 -1.32 11.09
 -1 8 -11 11.15 10.93
 0 8 -11 38.15 5.87
 1 8 -11 7.68 10.58
 2 8 -11 111.84 9.03
 3 8 -11 8.16 10.42
 4 8 -11 160.95 10.96
 5 8 -11 -1.94 10.93
 6 8 -11 49.77 7.24
 7 8 -11 2.12 11.64
 8 8 -11 14.36 12.68
 8 9 -11 -3.08 12.99
 7 9 -11 11.57 12.4
 6 9 -11 5.84 11.99
 5 9 -11 91.67 8.78
 4 9 -11 6.3 11.04
 3 9 -11 78.74 8.28
 2 9 -11 33.35 11.45
 1 9 -11 30.08 5.98
 0 9 -11 16.22 11.32
 -1 9 -11 1.7 10.78
 -2 9 -11 18.1 11.74
 -3 9 -11 -2.38 11.69
 -4 9 -11 -0.09 12.1
 -4 10 -11 7.37 12.28
 -3 10 -11 4.96 11.82
 -2 10 -11 3.81 11.48
 -1 10 -11 7.39 11.23
 0 10 -11 -7.6 11.16
 1 10 -11 17.37 11.08
 2 10 -11 10.83 10.98
 3 10 -11 34.33 6.47
 4 10 -11 16.12 11.41
 5 10 -11 32.31 12.78
 6 10 -11 4.68 12.36
 7 10 -11 3.56 12.61
 6 11 -11 60.15 8.11
 5 11 -11 5.75 11.79
 4 11 -11 28.78 12.23
 3 11 -11 1.62 11.33
 2 11 -11 32.41 6.05
 1 11 -11 -0.95 11.17
 0 11 -11 6.49 11.09
 -1 11 -11 3.71 11.17
 -2 11 -11 2.1 11.63
 -3 11 -11 6.8 12.23
 -4 11 -11 1.92 12.47
 -3 12 -11 -3.59 12.83
 -2 12 -11 -0.97 12.48
 -1 12 -11 -2.59 11.89
 0 12 -11 0.29 11.69
 1 12 -11 -0.88 11.94
 2 12 -11 -3.55 11.96
 3 12 -11 3.84 12
 4 12 -11 2.93 11.92
 5 12 -11 38.43 6.66
 4 13 -11 5.54 12.65
 3 13 -11 2.7 12.11
 2 13 -11 -5.79 12.32
 1 13 -11 -0.57 12.27
 0 13 -11 6.82 12.17
 -1 13 -11 3.64 12.24
 -2 13 -11 13.69 12.91
 0 14 -11 1.46 12.68
 1 14 -11 8.27 12.83
 2 14 -11 -0.8 13.03
 -1 11 -12 -0.36 13.06
 0 11 -12 2.03 12.48
 1 11 -12 2.49 12.21
 2 11 -12 46.57 6.9
 3 11 -12 1.75 12.48
 4 11 -12 62.59 7.67
 5 10 -12 23.8 13.37
 4 10 -12 2.39 12.3
 3 10 -12 25.86 13.1
 2 10 -12 0.29 12.08
 1 10 -12 11.73 12.41
 0 10 -12 3.27 11.94
 -1 10 -12 2.01 12.4
 -2 10 -12 1.31 12.63
 -2 9 -12 -6.41 12.98
 -1 9 -12 0.5 12.1
 0 9 -12 8.42 12.17
 1 9 -12 -0.04 11.68
 2 9 -12 11.32 11.99
 3 9 -12 11.29 12.25
 4 9 -12 15.16 12.43
 5 9 -12 11.86 12.38
 6 9 -12 7.38 12.53
 7 8 -12 -5.77 12.8
 6 8 -12 10.66 12.58
 5 8 -12 3.24 11.72
 4 8 -12 22.3 12.03
 3 8 -12 2.61 11.62
 2 8 -12 -0.26 11.47
 1 8 -12 19.86 11.99
 0 8 -12 11.48 11.95
 -1 8 -12 9.53 12.17
 -2 8 -12 -7.01 12.9
 -2 7 -12 5.4 12.16
 -1 7 -12 32.19 12.78
 0 7 -12 3.57 11.56
 1 7 -12 42.01 6.69
 2 7 -12 4.33 11.4
 3 7 -12 4.43 11.49
 4 7 -12 -1.66 11.21
 5 7 -12 6.08 11.66
 6 7 -12 1.98 11.81
 7 7 -12 14.35 12.58
 8 7 -12 2.58 12.98
 8 6 -12 -1.39 12.58
 7 6 -12 19.87 12.54
 6 6 -12 -5.21 11.89
 5 6 -12 -1.11 11.33
 4 6 -12 9.76 11.28
 3 6 -12 -0.81 11.11
 2 6 -12 14.02 11.24
 1 6 -12 2.61 11.26
 0 6 -12 65.75 8.16
 -1 6 -12 -5.79 11.89
 -2 6 -12 8.6 12.41
 -3 6 -12 0.2 12.75
 -3 5 -12 12.13 13.15
 -2 5 -12 -0.41 12.14
 -1 5 -12 9.46 11.87
 0 5 -12 5.99 11.68
 1 5 -12 26.68 11.96
 2 5 -12 4.02 10.67
 3 5 -12 -0.65 10.63
 4 5 -12 8.79 10.84
 5 5 -12 3.77 11.06
 6 5 -12 20.21 11.74
 7 5 -12 20.26 12.2
 8 5 -12 36.71 6.6
 9 5 -12 21.89 13.4
 9 4 -12 32.84 13.85
 8 4 -12 77.5 8.81
 7 4 -12 33.76 12.45
 6 4 -12 84.88 8.86
 5 4 -12 7.32 11.05
 4 4 -12 4.88 10.74
 3 4 -12 8.84 10.97
 2 4 -12 -0.06 10.69
 1 4 -12 10.44 11.43
 0 4 -12 2 11.07
 -1 4 -12 -0.83 11.47
 -2 4 -12 7.32 12.32
 -2 3 -12 0.59 12.32
 -1 3 -12 -0.24 11.77
 0 3 -12 1.4 11.03
 1 3 -12 0.32 10.88
 2 3 -12 1.61 10.82
 3 3 -12 35.52 11.95
 4 3 -12 7.61 10.91
 5 3 -12 44.63 6.54
 6 3 -12 3.36 11.1
 7 3 -12 148.49 11.24
 8 3 -12 -0.35 12.11
 9 3 -12 66.9 8.42
 9 2 -12 3.28 12.36
 8 2 -12 61.02 7.78
 7 2 -12 -0.04 11.66
 6 2 -12 94.91 9.17
 5 2 -12 5.05 11.07
 4 2 -12 117.21 9.42
 3 2 -12 -0.49 10.81
 2 2 -12 13.22 11.37
 1 2 -12 -0.58 11.05
 0 2 -12 1.56 11.11
 -1 2 -12 2.22 11.62
 -2 2 -12 2.7 12.22
 -2 1 -12 5.21 12.84
 -1 1 -12 8.02 12.18
 0 1 -12 3.53 11.41
 1 1 -12 5.53 11.25
 2 1 -12 -0.28 11.08
 3 1 -12 77.66 8.93
 4 1 -12 1.69 10.95
 5 1 -12 109.01 9.77
 6 1 -12 10.75 11.6
 7 1 -12 85.92 9.1
 8 1 -12 18.7 12.86
 9 1 -12 7.31 12.57
 9 0 -12 12.79 12.68
 8 0 -12 7.51 11.83
 7 0 -12 39.02 6.57
 6 0 -12 23.05 12.31
 5 0 -12 34.39 6.1
 4 0 -12 51.21 7.44
 3 0 -12 15.83 11.81
 2 0 -12 34.17 12.07
 1 0 -12 4.19 11.35
 0 0 -12 23.64 12.38
 -1 0 -12 2.03 12.21
 -1 -1 -12 6.09 12.57
 0 -1 -12 7.92 12.29
 1 -1 -12 1.09 11.9
 2 -1 -12 38.14 6.42
 3 -1 -12 21.11 12.34
 4 -1 -12 68.89 8.23
 5 -1 -12 20.6 11.81
 6 -1 -12 25.88 12.35
 7 -1 -12 3.85 11.82
 8 -1 -12 19.47 12.59
 9 -1 -12 -0.62 12.39
 9 -2 -12 -0.9 12.78
 8 -2 -12 3.67 12.1
 7 -2 -12 29.83 12.35
 6 -2 -12 -0.34 11.51
 5 -2 -12 61.26 8.15
 4 -2 -12 5.53 11.61
 3 -2 -12 79.83 8.78
 2 -2 -12 -1.29 11.98
 1 -2 -12 29.02 12.81
 0 -2 -12 -0.33 12.79
 1 -3 -12 -1.54 12.65
 2 -3 -12 52.08 7.5
 3 -3 -12 -0.16 12.1
 4 -3 -12 48.82 7.53
 5 -3 -12 6.94 11.74
 6 -3 -12 0.54 11.75
 7 -3 -12 11.02 12.05
 8 -3 -12 1.49 12.14
 9 -3 -12 16.8 13.3
 8 -4 -12 12.65 12.78
 7 -4 -12 0.83 12.2
 6 -4 -12 6.2 12.45
 5 -4 -12 2.09 12.01
 4 -4 -12 4.71 12.3
 3 -4 -12 6.87 12.24
 2 -4 -12 4.72 12.44
 3 -5 -12 0.83 12.38
 4 -5 -12 -0.09 12.11
 5 -5 -12 3.3 12.5
 6 -5 -12 11.23 12.49
 7 -5 -12 -0.68 13.35
 8 -5 -12 10.49 13.3
 6 -1 -13 14.66 12.97
 5 -1 -13 9.18 12.77
 4 -1 -13 26.33 13.73
 3 -1 -13 9.46 13.07
 2 0 -13 15.57 13.16
 3 0 -13 -6 13.17
 4 0 -13 30.99 13.48
 5 0 -13 4.34 12.68
 6 0 -13 5.92 12.7
 7 0 -13 7.47 12.88
 7 1 -13 9.85 13.03
 6 1 -13 1.1 12.4
 5 1 -13 19.35 12.89
 4 1 -13 -2.77 12.45
 3 1 -13 30.28 13.55
 2 1 -13 1.6 12.67
 1 2 -13 6.53 12.64
 2 2 -13 12.07 12.8
 3 2 -13 5.63 12.21
 4 2 -13 23.97 12.99
 5 2 -13 3.67 12.19
 6 2 -13 23.31 13.21
 7 2 -13 2.08 12.58
 7 3 -13 28.43 13.6
 6 3 -13 19.54 13.33
 5 3 -13 14.36 12.77
 4 3 -13 11.4 12.46
 3 3 -13 15.99 12.49
 2 3 -13 2.02 12.21
 1 3 -13 0.03 12.5
 1 4 -13 3.26 12.32
 2 4 -13 0.16 12.05
 3 4 -13 10.14 12.47
 4 4 -13 1.8 12.2
 5 4 -13 36.86 13.36
 6 4 -13 11.31 12.89
 7 4 -13 42.08 14.35
 6 5 -13 16.22 13.47
 5 5 -13 1.29 12.34
 4 5 -13 6.77 12.32
 3 5 -13 -4.04 12.23
 2 5 -13 -1.25 12.21
 1 5 -13 6.57 12.46
 1 6 -13 -4.63 12.85
 2 6 -13 3.39 12.27
 3 6 -13 -0.24 12.31
 4 6 -13 3.61 12.07
 5 6 -13 3.93 12.73
 6 6 -13 7.77 12.85
 5 7 -13 -0.51 12.71
 4 7 -13 -1.17 12.69
 3 7 -13 10.57 12.95
 2 7 -13 -0.45 12.38
 1 7 -13 23.17 13.6
 2 8 -13 -1.12 12.97
 3 8 -13 5.2 12.78
 4 8 -13 9.19 12.78

_iucr_refine_fcf_details
;
data_malbac
_computing_structure_refinement   'olex2.refine 1.5-dev (Bourhis et al., 2015)'
_shelx_refln_list_code            4
loop_
  _space_group_symop_id
  _space_group_symop_operation_xyz
  1  x,y,z
  2  -x,-y,-z

_space_group_crystal_system       triclinic
_space_group_IT_number            2
_space_group_name_H-M_alt         'P -1'
_space_group_name_Hall            '-P 1'
_symmetry_space_group_name_H-M    'P -1'
_symmetry_space_group_name_Hall   '-P 1'
_symmetry_Int_Tables_number       2
_cell_length_a                    10.551(2)
_cell_length_b                    14.251(3)
_cell_length_c                    9.551(2)
_cell_angle_alpha                 99.77(2)
_cell_angle_beta                  105.10(2)
_cell_angle_gamma                 104.77(2)
_cell_volume                      1297.1(5)
loop_
  _refln_index_h
  _refln_index_k
  _refln_index_l
  _refln_F_squared_calc
  _refln_F_squared_meas
  _refln_F_squared_sigma
  _refln_F_squared_weight
  _refln_observed_status
-14 -1 3 108.123 104.468 9.541 62.891 o
-14 -1 4 43.107 35.595 13.041 72.699 o
-14 -1 5 44.355 27.974 12.974 74.070 o
-14 -1 6 116.045 102.461 9.832 59.112 o
-14 0 2 70.558 60.815 7.709 110.927 o
-14 0 3 37.018 23.000 12.654 80.292 o
-14 0 4 65.858 57.761 7.272 122.555 o
-14 0 5 126.720 107.018 9.745 55.349 o
-14 0 6 140.496 136.349 10.889 44.238 o
-14 1 1 14.693 9.299 12.508 91.611 o
-14 1 2 4.165 -2.550 12.353 98.865 o
-14 1 3 1.977 2.793 11.703 110.295 o
-14 1 4 14.137 9.299 11.839 101.742 o
-14 1 5 0.020 -3.161 12.120 104.083 o
-14 1 6 6.477 -1.125 12.450 96.618 o
-14 1 7 27.914 14.127 13.090 79.707 o
-14 2 1 64.377 58.701 7.825 115.779 o
-14 2 2 44.409 38.077 5.905 197.893 o
-14 2 3 28.575 19.014 12.043 91.190 o
-14 2 4 110.616 104.196 9.754 61.019 o
-14 2 5 317.850 328.684 15.630 13.291 o
-14 2 6 174.540 174.213 11.713 33.096 o
-14 2 7 166.884 174.901 12.033 33.595 o
-14 3 1 63.587 43.973 6.729 141.657 o
-14 3 2 88.688 72.703 7.961 90.371 o
-14 3 3 119.404 106.145 9.357 59.453 o
-14 3 4 229.297 214.113 12.654 23.512 o
-14 3 5 91.734 57.925 7.747 95.175 o
-14 3 6 25.705 14.079 12.033 93.369 o
-14 3 7 19.188 12.896 12.411 90.820 o
-14 4 1 10.191 6.147 11.849 103.785 o
-14 4 2 2.039 1.299 11.490 114.672 o
-14 4 3 6.051 -0.194 11.509 112.843 o
-14 4 4 26.738 12.518 11.985 93.939 o
-14 4 5 87.200 69.716 7.718 94.490 o
-14 4 6 44.124 34.014 12.906 73.870 o
-14 4 7 6.314 6.138 12.266 98.492 o
-14 5 1 70.866 53.029 7.088 122.454 o
-14 5 2 112.063 90.922 8.581 68.953 o
-14 5 3 256.218 279.204 14.137 18.100 o
-14 5 4 251.118 270.516 13.924 18.810 o
-14 5 5 107.780 103.808 9.367 64.010 o
-14 5 6 116.905 130.764 10.317 52.565 o
-14 5 7 29.266 29.642 13.226 75.731 o
-14 6 1 65.197 46.833 6.846 135.886 o
-14 6 2 79.514 64.829 7.670 102.407 o
-14 6 3 79.801 64.480 7.796 101.002 o
-14 6 4 9.619 5.604 11.529 109.706 o
-14 6 5 6.981 -0.436 11.878 105.740 o
-14 6 6 60.263 42.731 7.107 139.827 o
-14 6 7 63.990 54.251 6.952 131.238 o
-14 7 1 27.857 20.285 12.082 90.715 o
-14 7 2 34.698 16.716 12.305 86.081 o
-14 7 3 79.843 68.107 7.970 97.859 o
-14 7 4 76.623 74.904 8.048 96.961 o
-14 7 5 1.479 2.715 11.762 109.431 o
-14 7 6 7.543 2.986 12.053 102.023 o
-14 8 1 185.594 186.954 12.411 29.717 o
-14 8 2 158.185 157.167 11.112 38.192 o
-14 8 3 107.176 110.984 9.502 62.241 o
-14 8 4 72.659 71.297 7.709 104.840 o
-14 8 5 32.362 26.859 12.634 81.385 o
-14 8 6 61.289 39.425 6.603 150.141 o
-14 9 1 25.487 20.585 12.353 88.059 o
-14 9 2 2.593 4.373 11.936 105.562 o
-14 9 3 0.106 -7.253 12.111 104.220 o
-14 9 4 39.443 24.667 12.586 79.951 o
-14 9 5 62.366 50.236 7.224 130.999 o
-14 10 1 65.682 45.068 6.816 136.850 o
-14 10 2 70.242 63.297 7.757 109.543 o
-14 10 3 5.642 3.374 12.140 101.211 o
-14 10 4 7.264 1.261 12.159 100.698 o
-14 10 5 3.380 1.367 12.469 97.084 o
-14 11 1 45.538 42.770 6.535 173.554 o
-14 11 2 36.873 39.735 13.284 71.695 o
-14 11 3 14.453 13.468 12.566 90.222 o
-13 -4 2 0.855 -1.057 12.431 98.692 o
-13 -4 3 1.969 -3.830 12.402 98.803 o
-13 -4 4 0.665 0.621 11.936 106.971 o
-13 -4 5 5.205 4.198 11.946 104.449 o
-13 -4 6 21.426 12.479 12.421 89.998 o
-13 -4 7 25.909 12.440 12.770 84.186 o
-13 -3 1 82.970 61.261 7.980 97.974 o
-13 -3 2 125.271 120.428 10.239 51.965 o
-13 -3 3 83.353 60.359 7.466 103.278 o
-13 -3 4 6.118 -0.048 11.762 108.134 o
-13 -3 5 0.254 2.288 11.461 115.809 o
-13 -3 6 6.156 4.072 11.917 104.609 o
-13 -3 7 72.096 62.318 7.854 107.250 o
-13 -3 8 106.514 107.764 9.842 61.406 o
-13 -2 1 63.371 40.802 6.545 147.393 o
-13 -2 2 51.438 37.030 12.528 74.589 o
-13 -2 3 16.738 11.878 11.568 104.525 o
-13 -2 4 24.596 18.588 11.732 97.146 o
-13 -2 5 78.524 70.424 7.970 97.973 o
-13 -2 6 187.997 206.075 12.712 27.922 o
-13 -2 7 194.724 196.679 12.566 27.885 o
-13 -2 8 133.781 131.850 11.044 45.765 o
-13 -1 1 29.167 17.521 12.014 91.632 o
-13 -1 2 2.192 -5.740 11.422 116.244 o
-13 -1 3 3.716 3.103 10.918 125.505 o
-13 -1 4 38.213 33.908 6.012 213.306 o
-13 -1 5 52.992 31.610 12.111 78.939 o
-13 -1 6 3.218 -7.214 11.791 108.748 o
-13 -1 7 2.448 2.346 11.597 112.205 o
-13 -1 8 9.101 4.528 12.382 96.049 o
-13 0 1 87.493 79.490 8.077 88.011 o
-13 0 2 15.422 7.815 10.976 116.790 o
-13 0 3 3.162 -3.946 10.937 126.176 o
-13 0 4 18.567 15.921 10.937 113.670 o
-13 0 5 188.782 202.914 12.372 28.454 o
-13 0 6 302.459 322.236 15.272 14.166 o
-13 0 7 273.906 316.060 15.330 15.541 o
-13 0 8 178.465 184.598 11.965 31.434 o
-13 0 9 53.850 43.051 7.107 147.759 o
-13 1 1 5.127 5.236 10.831 126.130 o
-13 1 2 30.172 20.498 11.005 105.139 o
-13 1 3 107.126 107.163 8.988 65.517 o
-13 1 4 265.846 291.693 13.924 17.305 o
-13 1 5 467.498 499.125 18.093 7.073 o
-13 1 6 213.791 212.116 12.615 25.066 o
-13 1 7 142.605 132.451 10.181 46.195 o
-13 1 8 54.195 54.997 7.398 134.559 o
-13 1 9 18.468 20.508 12.731 85.716 o
-13 2 1 1.523 0.999 10.530 136.678 o
-13 2 2 35.219 20.789 10.860 104.686 o
-13 2 3 47.855 40.569 6.283 177.931 o
-13 2 4 40.241 20.614 11.296 95.871 o
-13 2 5 30.666 21.884 11.597 95.771 o
-13 2 6 36.070 30.184 11.791 89.217 o
-13 2 7 55.054 35.779 6.070 174.570 o
-13 2 8 4.297 -6.438 12.421 97.759 o
-13 2 9 6.480 2.550 12.305 98.439 o
-13 3 1 0.205 -0.097 10.414 140.871 o
-13 3 2 35.812 18.384 11.044 102.182 o
-13 3 3 217.105 217.633 11.917 25.183 o
-13 3 4 560.094 652.200 20.343 4.910 o
-13 3 5 732.098 828.052 22.971 3.132 o
-13 3 6 252.975 267.074 13.555 19.039 o
-13 3 7 144.938 149.836 10.705 42.362 o
-13 3 8 5.606 5.110 11.626 109.764 o
-13 3 9 6.000 3.859 12.372 97.331 o
-13 4 1 190.981 185.373 11.471 30.473 o
-13 4 2 416.518 421.555 16.232 8.966 o
-13 4 3 527.836 595.739 18.927 5.601 o
-13 4 4 444.788 487.063 17.628 7.590 o
-13 4 5 86.902 67.156 7.796 94.882 o
-13 4 6 45.859 32.560 5.905 200.775 o
-13 4 7 57.343 56.985 7.078 135.294 o
-13 4 8 30.563 24.871 12.372 85.297 o
-13 4 9 114.098 98.970 9.357 62.607 o
-13 5 1 50.669 41.917 6.613 163.907 o
-13 5 2 2.254 1.648 10.365 140.338 o
-13 5 3 29.556 27.004 11.248 100.108 o
-13 5 4 101.241 90.234 8.765 72.908 o
-13 5 5 90.419 72.926 7.728 91.133 o
-13 5 6 1.736 -3.791 11.112 122.993 o
-13 5 7 9.381 2.841 11.345 113.879 o
-13 5 8 11.607 3.908 11.868 103.346 o
-13 5 9 14.124 8.019 12.799 88.103 o
-13 6 1 240.429 235.367 12.402 21.898 o
-13 6 2 478.599 562.112 18.694 6.407 o
-13 6 3 627.755 748.465 21.429 3.973 o
-13 6 4 347.468 389.848 16.105 11.136 o
-13 6 5 149.378 149.216 10.220 42.699 o
-13 6 6 27.199 18.520 11.723 96.205 o
-13 6 7 38.009 29.642 12.305 82.617 o
-13 6 8 49.170 33.132 12.848 73.015 o
-13 7 1 318.539 345.914 15.184 13.098 o
-13 7 2 313.243 357.240 15.097 13.114 o
-13 7 3 137.367 130.997 9.929 48.398 o
-13 7 4 36.456 22.379 11.209 98.460 o
-13 7 5 88.483 82.273 8.116 86.248 o
-13 7 6 82.414 71.859 7.961 94.831 o
-13 7 7 163.145 142.913 10.714 39.441 o
-13 7 8 132.367 115.977 10.646 49.260 o
-13 8 1 10.525 5.905 10.996 119.497 o
-13 8 2 35.671 27.586 11.199 97.721 o
-13 8 3 69.191 58.711 6.923 123.526 o
-13 8 4 4.638 -1.038 10.811 128.286 o
-13 8 5 17.843 11.606 11.151 111.273 o
-13 8 6 9.127 5.265 11.432 111.786 o
-13 8 7 0.254 -1.164 12.140 103.671 o
-13 8 8 2.838 5.469 12.537 95.585 o
-13 9 1 337.983 402.919 16.532 11.110 o
-13 9 2 311.848 352.353 15.407 13.151 o
-13 9 3 146.620 158.301 10.811 40.913 o
-13 9 4 72.951 54.076 7.001 120.978 o
-13 9 5 58.375 46.746 6.526 150.592 o
-13 9 6 148.382 152.445 10.860 41.027 o
-13 9 7 155.246 154.801 11.354 38.398 o
-13 10 1 84.657 87.499 8.348 85.126 o
-13 10 2 43.340 33.219 12.227 80.924 o
-13 10 3 63.720 55.957 7.117 128.040 o
-13 10 4 103.993 102.354 9.250 66.361 o
-13 10 5 151.111 157.865 10.773 40.175 o
-13 10 6 139.763 136.174 10.734 44.853 o
-13 10 7 96.414 81.129 9.047 75.508 o
-13 11 1 20.315 10.889 11.674 101.470 o
-13 11 2 10.767 3.103 11.393 112.258 o
-13 11 3 17.857 11.471 11.665 102.549 o
-13 11 4 4.566 0.873 11.694 109.818 o
-13 11 5 0.069 1.910 11.936 106.953 o
-13 11 6 8.589 1.687 12.722 91.746 o
-13 12 1 75.838 74.603 8.116 96.943 o
-13 12 2 66.508 44.060 6.700 138.402 o
-13 12 3 41.339 26.742 12.440 80.505 o
-13 12 4 140.635 119.342 10.326 47.819 o
-13 12 5 172.049 176.899 12.198 32.443 o
-13 13 1 58.981 49.771 7.156 136.279 o
-13 13 2 74.873 66.953 8.164 99.856 o
-13 13 3 119.793 127.244 10.685 50.906 o
-13 13 4 149.030 156.294 11.926 38.073 o
-12 -7 3 108.990 103.605 9.948 60.754 o
-12 -7 4 159.961 175.047 11.994 34.676 o
-12 -7 5 116.116 121.203 9.948 55.614 o
-12 -7 6 65.077 46.862 6.884 135.371 o
-12 -6 2 45.042 30.078 12.925 74.004 o
-12 -6 3 31.834 24.561 12.372 84.907 o
-12 -6 4 3.537 2.123 11.975 104.957 o
-12 -6 5 7.289 0.456 11.781 107.232 o
-12 -6 6 6.806 2.783 11.897 104.939 o
-12 -6 7 47.840 38.213 13.216 69.480 o
-12 -6 8 30.884 17.114 13.303 76.228 o
-12 -5 1 15.683 5.595 12.305 94.770 o
-12 -5 2 65.763 52.399 7.214 126.288 o
-12 -5 3 159.555 169.374 11.471 36.192 o
-12 -5 4 111.048 115.017 9.454 60.379 o
-12 -5 5 45.156 35.721 12.014 82.050 o
-12 -5 6 4.862 -0.388 11.674 110.234 o
-12 -5 7 0.146 0.911 11.665 112.141 o
-12 -5 8 4.731 -3.248 12.683 93.690 o
-12 -4 1 236.786 249.466 13.759 20.593 o
-12 -4 2 241.636 257.969 13.827 19.908 o
-12 -4 3 269.737 286.185 14.069 17.163 o
-12 -4 4 108.728 113.379 9.318 62.121 o
-12 -4 5 100.458 89.109 8.358 76.085 o
-12 -4 6 80.299 63.462 7.738 101.617 o
-12 -4 7 149.930 159.407 11.383 38.869 o
-12 -4 8 162.622 209.759 12.819 30.525 o
-12 -4 9 206.409 247.866 14.157 22.615 o
-12 -3 1 15.328 7.069 11.316 110.633 o
-12 -3 2 3.320 5.401 10.743 129.098 o
-12 -3 3 3.566 1.988 10.521 135.378 o
-12 -3 4 14.984 7.864 10.637 123.969 o
-12 -3 5 106.633 84.804 8.164 75.274 o
-12 -3 6 155.027 134.672 10.307 42.829 o
-12 -3 7 133.709 141.934 10.860 45.199 o
-12 -3 8 91.356 67.884 8.242 87.844 o
-12 -3 9 33.268 21.894 12.974 78.254 o
-12 -2 1 206.651 224.963 12.392 25.367 o
-12 -2 2 124.711 135.098 9.551 52.489 o
-12 -2 3 43.439 29.254 10.802 98.923 o
-12 -2 4 5.735 -0.970 10.394 137.858 o
-12 -2 5 5.762 -2.967 10.627 132.019 o
-12 -2 6 21.735 12.082 10.734 116.806 o
-12 -2 7 55.216 44.166 6.981 147.750 o
-12 -2 8 84.106 65.246 8.252 93.192 o
-12 -2 9 120.713 101.510 10.133 56.462 o
-12 -2 10 43.961 32.211 13.565 68.397 o
-12 -1 1 220.557 235.338 12.411 23.567 o
-12 -1 2 164.311 178.392 10.627 36.262 o
-12 -1 3 195.664 198.182 11.083 29.578 o
-12 -1 4 154.738 170.810 10.288 39.306 o
-12 -1 5 379.895 412.043 15.902 9.996 o
-12 -1 6 376.407 449.354 16.522 9.502 o
-12 -1 7 331.240 372.250 15.737 12.016 o
-12 -1 8 288.403 332.020 15.165 14.599 o
-12 -1 9 171.853 179.604 11.946 32.706 o
-12 -1 10 87.795 88.799 9.182 76.863 o
-12 0 1 11.402 8.795 10.055 139.664 o
-12 0 2 56.696 50.731 6.041 159.701 o
-12 0 3 174.364 160.464 9.880 37.432 o
-12 0 4 171.316 153.938 9.677 38.980 o
-12 0 5 270.380 259.424 12.789 18.637 o
-12 0 6 50.184 30.921 10.928 93.409 o
-12 0 7 61.830 39.474 6.050 160.299 o
-12 0 8 42.029 33.879 11.839 85.517 o
-12 0 9 24.829 16.736 12.004 93.594 o
-12 0 10 27.118 20.265 12.751 82.812 o
-12 1 1 31.317 19.674 9.968 123.111 o
-12 1 2 18.742 6.700 9.657 145.093 o
-12 1 3 14.334 11.490 9.531 150.284 o
-12 1 4 7.299 -2.259 9.861 151.496 o
-12 1 5 136.437 134.672 9.338 49.962 o
-12 1 6 132.174 112.593 9.153 55.029 o
-12 1 7 125.559 114.222 9.318 56.242 o
-12 1 8 128.415 125.053 9.880 51.725 o
-12 1 9 33.363 25.327 12.062 87.913 o
-12 1 10 32.783 23.959 12.974 78.091 o
-12 2 1 149.711 155.140 9.716 43.200 o
-12 2 2 234.766 243.328 11.868 22.453 o
-12 2 3 254.208 282.966 12.615 19.025 o
-12 2 4 374.303 407.641 15.087 10.371 o
-12 2 5 458.030 505.030 16.891 7.317 o
-12 2 6 374.323 423.136 15.786 10.021 o
-12 2 7 350.567 376.060 15.543 11.398 o
-12 2 8 242.772 282.336 13.837 19.022 o
-12 2 9 101.138 115.589 9.657 62.832 o
-12 2 10 108.470 122.871 10.453 55.582 o
-12 3 1 127.718 120.399 8.746 56.693 o
-12 3 2 165.811 142.739 9.182 42.243 o
-12 3 3 180.184 152.047 9.531 37.766 o
-12 3 4 169.928 148.605 9.667 39.784 o
-12 3 5 18.900 11.888 9.803 139.103 o
-12 3 6 56.698 39.512 5.847 173.460 o
-12 3 7 54.974 39.280 5.973 173.866 o
-12 3 8 51.455 32.696 11.713 83.393 o
-12 3 9 52.365 37.573 6.429 169.035 o
-12 3 10 57.220 37.360 13.245 66.806 o
-12 4 1 3.566 -0.087 9.357 171.200 o
-12 4 2 39.671 29.283 9.842 116.088 o
-12 4 3 91.258 79.306 7.136 93.265 o
-12 4 4 317.171 288.522 13.041 15.147 o
-12 4 5 221.257 210.555 11.335 25.694 o
-12 4 6 103.199 75.679 7.582 83.379 o
-12 4 7 49.095 44.399 6.177 174.932 o
-12 4 8 37.890 26.771 11.568 91.964 o
-12 4 9 14.290 14.312 11.946 99.017 o
-12 4 10 16.176 11.723 12.663 88.671 o
-12 5 1 299.852 342.240 13.963 14.361 o
-12 5 2 316.947 359.984 14.108 13.249 o
-12 5 3 330.068 354.680 14.060 12.869 o
-12 5 4 398.345 443.672 15.756 9.205 o
-12 5 5 235.978 224.963 11.917 23.095 o
-12 5 6 323.741 379.376 15.194 12.311 o
-12 5 7 281.131 343.345 14.641 14.892 o
-12 5 8 217.697 242.853 13.478 22.532 o
-12 5 9 103.390 110.130 9.667 62.957 o
-12 5 10 86.287 83.737 9.182 78.844 o
-12 6 1 44.832 34.684 5.158 225.104 o
-12 6 2 34.493 28.982 9.793 120.789 o
-12 6 3 4.864 8.707 9.182 171.752 o
-12 6 4 39.488 23.271 9.919 116.963 o
-12 6 5 42.373 32.434 5.275 231.143 o
-12 6 6 155.704 145.347 10.123 42.006 o
-12 6 7 65.269 57.237 6.972 127.840 o
-12 6 8 79.128 59.070 7.224 110.002 o
-12 6 9 10.335 8.300 12.033 100.319 o
-12 7 1 85.861 80.683 7.330 94.990 o
-12 7 2 148.770 152.270 9.551 44.127 o
-12 7 3 214.813 211.641 11.190 26.457 o
-12 7 4 94.823 72.257 7.243 92.372 o
-12 7 5 66.968 55.492 6.516 133.762 o
-12 7 6 16.874 9.056 10.511 125.156 o
-12 7 7 64.723 49.286 6.661 138.015 o
-12 7 8 16.881 13.012 11.606 103.578 o
-12 7 9 79.606 70.977 8.252 94.278 o
-12 8 1 152.615 179.556 10.404 38.646 o
-12 8 2 362.049 351.393 14.389 11.726 o
-12 8 3 222.080 224.672 11.800 24.474 o
-12 8 4 321.928 316.632 14.254 13.864 o
-12 8 5 267.743 305.597 13.720 16.923 o
-12 8 6 324.580 384.942 15.824 12.001 o
-12 8 7 180.221 192.161 11.791 30.970 o
-12 8 8 94.762 80.023 8.155 82.941 o
-12 8 9 84.688 60.650 7.776 98.982 o
-12 9 1 6.958 2.870 9.784 152.926 o
-12 9 2 25.439 16.552 10.036 127.059 o
-12 9 3 5.845 -3.277 10.152 144.262 o
-12 9 4 100.410 96.013 8.300 74.758 o
-12 9 5 58.248 52.864 7.069 136.829 o
-12 9 6 83.448 87.945 8.106 87.661 o
-12 9 7 0.574 0.349 11.238 120.728 o
-12 9 8 0.391 -7.534 12.576 96.567 o
-12 10 1 164.847 154.830 10.511 38.453 o
-12 10 2 167.407 136.126 9.628 41.642 o
-12 10 3 83.486 64.005 6.875 107.820 o
-12 10 4 15.349 8.814 10.511 126.183 o
-12 10 5 48.293 43.042 6.225 176.386 o
-12 10 6 32.753 25.046 11.858 90.747 o
-12 10 7 86.538 78.588 8.513 85.297 o
-12 10 8 73.788 55.763 7.330 115.043 o
-12 11 1 158.592 154.946 10.326 40.004 o
-12 11 2 152.423 160.541 10.491 40.297 o
-12 11 3 140.342 153.288 10.414 43.714 o
-12 11 4 147.843 168.928 10.646 40.025 o
-12 11 5 179.999 188.689 11.965 30.965 o
-12 11 6 76.419 61.280 7.592 107.164 o
-12 11 7 103.371 82.409 9.347 70.173 o
-12 12 1 4.763 -2.453 11.083 122.130 o
-12 12 2 16.641 9.124 10.976 115.793 o
-12 12 3 29.137 19.974 11.287 101.415 o
-12 12 4 76.841 59.050 7.263 111.592 o
-12 12 5 6.759 3.752 11.655 109.036 o
-12 12 6 0.067 3.617 11.956 106.296 o
-12 13 1 71.074 55.046 7.195 119.766 o
-12 13 2 16.212 11.956 11.325 108.878 o
-12 13 3 10.049 6.021 11.577 108.556 o
-12 13 4 26.505 16.261 12.246 89.824 o
-12 13 5 102.030 80.945 9.066 72.814 o
-12 13 6 119.694 117.606 10.152 54.275 o
-12 14 1 83.934 89.787 8.659 82.465 o
-12 14 2 47.965 43.129 6.632 166.798 o
-12 14 3 95.653 105.883 9.561 67.274 o
-12 14 4 106.566 100.715 9.793 62.876 o
-12 15 1 9.872 6.904 12.053 100.444 o
-12 15 2 9.519 6.584 12.498 93.869 o
-12 15 3 14.642 -1.716 13.206 83.959 o
-11 -9 4 37.126 32.735 13.226 73.118 o
-11 -9 5 56.606 49.752 7.185 138.601 o
-11 -9 6 94.829 102.073 9.570 68.315 o
-11 -8 1 60.101 51.284 7.893 122.208 o
-11 -8 2 39.307 35.256 13.119 73.133 o
-11 -8 3 37.339 34.044 12.469 80.317 o
-11 -8 4 65.290 50.779 7.030 130.516 o
-11 -8 5 109.930 105.185 9.570 61.966 o
-11 -8 6 105.441 99.852 9.531 64.799 o
-11 -8 7 63.150 49.732 7.156 131.504 o
-11 -8 8 50.508 42.722 6.807 159.099 o
-11 -7 1 2.966 -0.155 12.062 104.050 o
-11 -7 2 3.115 3.132 11.325 117.089 o
-11 -7 3 3.485 1.668 11.083 122.351 o
-11 -7 4 0.147 -5.149 11.509 115.370 o
-11 -7 5 0.176 -0.368 11.519 115.164 o
-11 -7 6 16.089 7.544 11.519 106.587 o
-11 -7 7 0.859 -3.762 11.994 105.981 o
-11 -7 8 0.056 2.191 11.858 108.304 o
-11 -7 9 0.033 0.970 12.285 101.147 o
-11 -6 1 73.048 66.478 7.873 104.600 o
-11 -6 2 43.328 35.876 12.043 82.394 o
-11 -6 3 98.130 106.581 8.988 69.346 o
-11 -6 4 179.111 166.766 10.724 34.633 o
-11 -6 5 218.186 207.258 12.421 25.076 o
-11 -6 6 190.359 183.046 11.616 30.498 o
-11 -6 7 66.195 46.736 7.020 131.935 o
-11 -6 8 17.924 16.232 11.926 97.505 o
-11 -6 9 11.760 12.440 12.188 96.654 o
-11 -5 1 55.775 36.429 6.070 172.694 o
-11 -5 2 67.204 54.406 6.603 132.800 o
-11 -5 3 188.108 192.432 11.219 30.737 o
-11 -5 4 213.276 206.531 11.771 26.283 o
-11 -5 5 158.776 145.890 10.559 40.334 o
-11 -5 6 109.773 105.845 9.018 64.591 o
-11 -5 7 43.910 38.882 5.760 202.556 o
-11 -5 8 9.395 7.563 11.354 112.591 o
-11 -5 9 65.960 64.975 7.864 111.134 o
-11 -5 10 79.783 79.054 8.950 85.376 o
-11 -4 1 2.435 -1.319 10.375 140.493 o
-11 -4 2 0.011 1.551 9.784 159.115 o
-11 -4 3 1.172 -2.957 10.026 151.260 o
-11 -4 4 29.560 10.569 10.065 125.644 o
-11 -4 5 31.982 21.080 10.424 113.695 o
-11 -4 6 3.215 -0.398 9.977 151.190 o
-11 -4 7 2.379 2.056 10.297 141.949 o
-11 -4 8 0.505 -0.087 10.627 135.103 o
-11 -4 9 7.186 -1.183 11.645 109.815 o
-11 -4 10 0.369 -1.493 12.314 100.718 o
-11 -3 1 146.271 151.950 9.667 44.446 o
-11 -3 2 247.325 259.705 12.353 20.474 o
-11 -3 3 396.526 401.125 14.971 9.900 o
-11 -3 4 533.780 607.820 18.627 5.496 o
-11 -3 5 167.187 175.968 10.385 36.421 o
-11 -3 6 69.043 74.041 7.612 107.770 o
-11 -3 7 49.860 60.941 6.661 149.944 o
-11 -3 8 86.506 86.277 8.261 85.090 o
-11 -3 9 152.144 153.725 11.151 39.510 o
-11 -3 10 141.563 126.798 10.404 46.464 o
-11 -2 1 109.358 97.477 8.358 69.891 o
-11 -2 2 278.224 303.949 13.352 16.584 o
-11 -2 3 323.033 313.694 13.313 14.213 o
-11 -2 4 147.577 125.179 8.891 49.537 o
-11 -2 5 115.368 98.786 8.184 67.855 o
-11 -2 6 40.705 34.616 5.449 226.361 o
-11 -2 7 92.289 97.001 8.145 79.676 o
-11 -2 8 190.809 174.853 11.354 31.355 o
-11 -2 9 107.727 97.370 8.911 67.666 o
-11 -2 10 80.385 75.747 8.581 89.207 o
-11 -2 11 24.791 18.510 12.896 82.137 o
-11 -1 1 5.859 4.334 9.153 174.039 o
-11 -1 2 15.363 6.758 9.134 163.489 o
-11 -1 3 85.830 82.050 7.204 95.607 o
-11 -1 4 40.538 38.145 5.372 224.769 o
-11 -1 5 4.976 5.575 8.930 182.716 o
-11 -1 6 26.001 19.674 9.434 138.887 o
-11 -1 7 0.067 -2.705 9.706 162.260 o
-11 -1 8 5.370 3.006 10.065 145.953 o
-11 -1 9 12.409 7.175 10.879 120.543 o
-11 -1 10 1.510 -0.562 11.412 116.740 o
-11 -1 11 1.552 1.794 12.208 101.784 o
-11 0 1 510.183 511.818 16.668 6.517 o
-11 0 2 766.214 796.238 20.159 3.126 o
-11 0 3 778.181 834.994 20.663 2.974 o
-11 0 4 82.153 91.339 7.389 93.348 o
-11 0 5 252.323 294.796 12.275 18.959 o
-11 0 6 158.442 153.385 9.706 41.542 o
-11 0 7 242.897 261.693 12.363 20.720 o
-11 0 8 382.360 384.913 15.824 10.300 o
-11 0 9 177.029 159.882 11.228 34.626 o
-11 0 10 94.512 84.707 8.756 77.547 o
-11 0 11 41.384 34.267 13.216 71.811 o
-11 1 1 359.772 385.398 14.157 11.319 o
-11 1 2 365.072 341.832 13.342 12.053 o
-11 1 3 76.352 60.321 6.400 121.940 o
-11 1 4 27.208 19.703 8.795 154.018 o
-11 1 5 112.572 115.250 8.300 65.021 o
-11 1 6 214.491 208.421 10.908 26.958 o
-11 1 7 322.548 336.170 14.079 13.505 o
-11 1 8 244.504 256.786 12.915 20.396 o
-11 1 9 65.525 52.641 6.972 130.110 o
-11 1 10 42.307 36.730 12.285 80.065 o
-11 1 11 24.386 20.382 12.508 86.549 o
-11 2 1 172.527 163.450 9.638 37.934 o
-11 2 2 136.708 125.858 8.436 53.994 o
-11 2 3 130.421 142.884 8.707 52.453 o
-11 2 4 0.289 3.985 8.067 230.975 o
-11 2 5 7.153 4.072 8.523 197.710 o
-11 2 6 2.255 1.580 8.940 187.792 o
-11 2 7 20.506 12.809 10.065 131.323 o
-11 2 8 73.807 78.414 8.019 98.004 o
-11 2 9 19.126 12.382 10.850 115.971 o
-11 2 10 0.056 -2.220 11.529 115.021 o
-11 2 11 0.093 -2.075 12.295 101.126 o
-11 3 1 692.135 704.987 18.530 3.817 o
-11 3 2 144.422 172.157 9.512 42.968 o
-11 3 3 74.068 70.763 6.448 118.279 o
-11 3 4 199.460 205.241 10.433 29.452 o
-11 3 5 592.059 620.959 17.744 4.920 o
-11 3 6 760.466 820.848 20.634 3.084 o
-11 3 7 543.031 553.773 17.841 5.749 o
-11 3 8 217.054 211.582 11.781 25.625 o
-11 3 9 58.028 49.567 6.564 148.358 o
-11 3 10 17.126 14.457 11.694 101.761 o
-11 3 11 37.007 28.362 13.168 74.309 o
-11 4 1 140.975 135.244 8.523 51.038 o
-11 4 2 31.751 28.022 4.615 308.640 o
-11 4 3 234.819 267.142 11.597 21.673 o
-11 4 4 460.935 502.189 15.815 7.418 o
-11 4 5 531.474 562.248 16.891 5.907 o
-11 4 6 263.889 263.380 12.314 19.211 o
-11 4 7 123.441 96.080 8.494 63.629 o
-11 4 8 25.335 12.111 10.443 120.288 o
-11 4 9 55.025 48.830 6.816 148.131 o
-11 4 10 34.160 17.405 12.285 86.382 o
-11 4 11 17.462 10.918 12.974 84.506 o
-11 5 1 61.583 46.513 5.507 165.708 o
-11 5 2 3.278 3.782 8.009 229.153 o
-11 5 3 8.244 4.722 8.213 209.710 o
-11 5 4 28.104 20.789 4.741 336.578 o
-11 5 5 90.735 82.738 7.534 89.280 o
-11 5 6 111.151 119.759 8.804 62.408 o
-11 5 7 80.684 83.727 7.786 93.544 o
-11 5 8 13.433 10.084 10.200 134.140 o
-11 5 9 5.723 0.921 10.850 126.547 o
-11 5 10 31.143 21.535 12.140 88.505 o
-11 6 1 129.051 134.846 8.581 54.510 o
-11 6 2 104.466 115.114 7.951 70.245 o
-11 6 3 602.210 642.601 17.754 4.735 o
-11 6 4 818.502 863.608 20.866 2.749 o
-11 6 5 795.584 818.327 20.934 2.930 o
-11 6 6 359.422 363.707 14.573 11.566 o
-11 6 7 145.666 134.962 9.619 46.728 o
-11 6 8 22.945 18.277 10.530 118.155 o
-11 6 9 41.901 35.663 12.237 80.900 o
-11 6 10 238.260 286.767 14.903 18.460 o
-11 7 1 49.746 45.049 5.556 188.757 o
-11 7 2 348.751 354.990 13.478 12.355 o
-11 7 3 532.709 566.553 16.978 5.860 o
-11 7 4 396.430 371.561 14.108 10.462 o
-11 7 5 81.093 62.434 6.778 111.727 o
-11 7 6 36.285 22.776 9.851 120.655 o
-11 7 7 33.945 24.842 10.385 111.993 o
-11 7 8 39.873 29.864 11.287 94.019 o
-11 7 9 94.326 85.191 8.659 78.188 o
-11 7 10 68.964 58.759 8.397 104.623 o
-11 8 1 2.304 -0.640 8.465 210.083 o
-11 8 2 4.907 3.161 8.601 197.976 o
-11 8 3 52.285 37.786 5.323 197.316 o
-11 8 4 214.206 214.016 11.500 26.079 o
-11 8 5 132.973 129.368 8.891 53.120 o
-11 8 6 34.596 23.911 10.113 116.626 o
-11 8 7 1.840 1.707 10.036 149.853 o
-11 8 8 15.705 14.564 11.151 111.605 o
-11 8 9 51.492 31.891 6.681 169.005 o
-11 9 1 294.840 310.814 12.877 15.759 o
-11 9 2 839.706 909.568 21.894 2.569 o
-11 9 3 762.691 815.447 20.692 3.085 o
-11 9 4 474.691 537.348 17.065 6.797 o
-11 9 5 146.546 147.335 9.609 45.063 o
-11 9 6 66.539 63.055 6.904 124.303 o
-11 9 7 28.941 26.994 11.025 103.791 o
-11 9 8 309.877 358.306 15.979 12.915 o
-11 9 9 313.649 377.970 17.589 11.912 o
-11 10 1 333.536 362.708 14.409 12.494 o
-11 10 2 205.530 198.017 10.734 28.794 o
-11 10 3 31.610 24.987 10.123 118.097 o
-11 10 4 8.475 6.312 9.541 157.538 o
-11 10 5 9.229 5.517 9.803 149.437 o
-11 10 6 38.550 31.939 11.015 97.797 o
-11 10 7 68.030 46.736 6.700 134.892 o
-11 10 8 172.807 198.919 12.654 30.191 o
-11 11 1 30.724 22.466 9.977 122.347 o
-11 11 2 177.888 181.456 10.559 33.951 o
-11 11 3 134.638 133.634 9.454 50.233 o
-11 11 4 20.608 21.274 10.346 122.321 o
-11 11 5 0.071 1.930 10.026 151.360 o
-11 11 6 3.384 -0.805 10.889 127.169 o
-11 11 7 18.812 7.495 11.878 99.620 o
-11 11 8 65.579 52.331 8.184 112.608 o
-11 12 1 296.602 349.172 14.622 14.102 o
-11 12 2 319.056 354.273 14.632 13.107 o
-11 12 3 66.507 66.672 7.059 120.347 o
-11 12 4 68.600 54.193 6.603 131.279 o
-11 12 5 30.513 20.362 11.228 101.540 o
-11 12 6 243.272 271.835 13.972 19.237 o
-11 12 7 402.213 474.807 19.354 8.187 o
-11 13 1 31.912 22.932 11.025 103.308 o
-11 13 2 6.764 5.023 10.404 135.331 o
-11 13 3 1.221 1.454 10.385 140.546 o
-11 13 4 90.085 83.756 8.184 84.338 o
-11 13 5 35.168 32.104 12.120 85.272 o
-11 13 6 188.577 214.714 13.517 26.390 o
-11 13 7 83.521 88.847 10.094 72.383 o
-11 14 1 55.627 39.764 6.361 163.448 o
-11 14 2 29.958 17.453 11.316 101.183 o
-11 14 3 0.978 -1.076 11.073 124.226 o
-11 14 4 11.363 6.613 11.548 108.374 o
-11 14 5 41.578 34.587 12.935 74.274 o
-11 14 6 46.023 33.026 13.846 65.530 o
-11 15 1 58.232 53.087 6.913 139.418 o
-11 15 2 45.658 44.137 6.322 177.667 o
-11 15 3 33.215 21.303 12.256 86.370 o
-11 15 4 160.246 164.022 11.684 36.091 o
-11 15 5 177.347 192.733 12.722 29.913 o
-11 16 1 2.395 -0.010 11.956 106.106 o
-11 16 2 17.009 15.950 12.178 94.254 o
-11 16 3 25.856 19.150 12.838 82.379 o
-10 -10 2 84.686 80.033 8.804 83.585 o
-10 -10 3 28.364 19.858 12.537 84.956 o
-10 -10 4 34.322 25.220 12.595 81.436 o
-10 -10 5 36.618 25.181 12.673 79.864 o
-10 -10 6 120.137 112.719 10.084 55.135 o
-10 -10 7 118.831 125.576 10.453 52.242 o
-10 -9 1 20.257 13.420 12.120 94.343 o
-10 -9 2 0.086 0.553 11.490 115.668 o
-10 -9 3 1.179 1.096 11.063 124.070 o
-10 -9 4 16.196 7.495 11.364 109.253 o
-10 -9 5 46.611 30.543 12.072 81.856 o
-10 -9 6 57.110 50.799 7.340 134.647 o
-10 -9 7 20.604 19.228 12.314 90.517 o
-10 -9 8 8.341 5.071 12.266 97.980 o
-10 -9 9 0.007 0.824 12.363 99.915 o
-10 -8 1 75.795 51.002 7.505 113.179 o
-10 -8 2 86.641 71.704 7.456 96.551 o
-10 -8 3 4.486 4.198 10.501 134.617 o
-10 -8 4 13.332 11.160 10.753 121.519 o
-10 -8 5 23.834 6.720 11.073 110.856 o
-10 -8 6 139.477 104.148 9.454 53.030 o
-10 -8 7 147.678 127.215 10.424 44.950 o
-10 -8 8 98.264 100.211 9.173 69.591 o
-10 -8 9 27.300 25.443 12.819 81.186 o
-10 -7 1 44.302 33.132 5.682 210.888 o
-10 -7 2 14.242 11.597 10.559 124.953 o
-10 -7 3 55.153 59.128 6.972 138.471 o
-10 -7 4 241.652 227.649 11.762 22.617 o
-10 -7 5 486.604 546.143 18.374 6.439 o
-10 -7 6 410.568 467.690 17.405 8.419 o
-10 -7 7 250.409 317.960 14.380 17.183 o
-10 -7 8 47.543 50.091 6.962 154.617 o
-10 -7 9 5.855 10.501 11.558 109.750 o
-10 -7 10 43.009 38.174 6.390 186.284 o
-10 -6 1 0.218 -1.193 9.958 154.037 o
-10 -6 2 27.621 12.479 9.919 129.451 o
-10 -6 3 157.122 132.315 8.998 45.866 o
-10 -6 4 198.208 189.155 11.054 29.864 o
-10 -6 5 62.734 48.617 6.613 141.798 o
-10 -6 6 2.557 3.103 9.987 150.231 o
-10 -6 7 0.721 0.979 10.036 150.941 o
-10 -6 8 9.564 -4.198 10.908 123.423 o
-10 -6 9 0.020 -2.473 11.277 120.236 o
-10 -6 10 38.221 22.447 12.479 81.872 o
-10 -5 1 7.301 1.794 9.444 163.785 o
-10 -5 2 1.322 -3.908 9.531 167.126 o
-10 -5 3 50.612 28.585 5.139 218.266 o
-10 -5 4 314.579 314.101 13.681 14.438 o
-10 -5 5 491.493 506.717 17.201 6.762 o
-10 -5 6 297.000 330.720 14.127 14.675 o
-10 -5 7 93.511 100.870 8.271 77.183 o
-10 -5 8 18.914 14.341 10.268 127.371 o
-10 -5 9 16.582 13.555 10.947 115.195 o
-10 -5 10 3.696 1.018 11.461 114.588 o
-10 -5 11 36.267 26.170 12.896 77.511 o
-10 -4 1 111.993 120.583 8.746 62.196 o
-10 -4 2 478.342 514.591 16.484 6.972 o
-10 -4 3 963.331 1018.550 22.951 2.036 o
-10 -4 4 1150.250 1226.700 25.210 1.458 o
-10 -4 5 557.785 618.709 18.316 5.218 o
-10 -4 6 143.406 156.556 9.561 44.843 o
-10 -4 7 11.080 14.302 9.444 154.468 o
-10 -4 8 51.699 47.948 6.458 161.047 o
-10 -4 9 219.605 241.893 12.993 22.846 o
-10 -4 10 157.708 190.590 12.111 33.649 o
-10 -4 11 134.994 149.963 11.432 42.477 o
-10 -3 1 167.401 164.313 9.745 38.609 o
-10 -3 2 262.081 269.149 12.334 19.128 o
-10 -3 3 183.827 151.446 9.357 37.460 o
-10 -3 4 23.485 16.261 9.085 151.754 o
-10 -3 5 0.000 2.376 8.290 220.621 o
-10 -3 6 28.585 19.616 9.279 140.309 o
-10 -3 7 0.809 -0.330 8.930 190.796 o
-10 -3 8 167.338 160.338 10.162 38.189 o
-10 -3 9 58.996 60.030 7.185 129.930 o
-10 -3 10 10.908 6.846 11.325 112.598 o
-10 -3 11 5.189 -1.261 12.392 97.925 o
-10 -2 1 88.816 84.416 7.515 90.142 o
-10 -2 2 351.691 371.794 13.555 11.945 o
-10 -2 3 889.312 965.080 21.603 2.326 o
-10 -2 4 702.148 786.678 19.208 3.499 o
-10 -2 5 77.947 79.984 6.836 106.092 o
-10 -2 6 35.318 26.296 4.441 305.758 o
-10 -2 7 41.312 35.401 5.129 235.284 o
-10 -2 8 17.394 9.531 9.745 142.744 o
-10 -2 9 223.368 206.657 11.926 25.097 o
-10 -2 10 159.666 166.175 11.432 36.513 o
-10 -2 11 103.766 100.240 9.173 67.296 o
-10 -1 1 1029.460 1093.280 22.709 1.807 o
-10 -1 2 1217.620 1189.380 23.320 1.400 o
-10 -1 3 1224.760 1274.790 23.901 1.329 o
-10 -1 4 72.171 68.252 6.555 120.240 o
-10 -1 5 51.071 53.688 5.614 176.068 o
-10 -1 6 91.403 117.664 8.164 74.678 o
-10 -1 7 424.325 452.913 15.669 8.563 o
-10 -1 8 460.981 561.530 17.705 6.754 o
-10 -1 9 324.896 351.315 14.990 12.829 o
-10 -1 10 129.379 153.085 10.598 45.676 o
-10 -1 11 33.107 28.575 12.334 84.206 o
-10 0 1 115.865 80.082 7.049 78.189 o
-10 0 2 0.691 2.143 7.825 246.265 o
-10 0 3 35.109 30.466 4.848 276.817 o
-10 0 4 30.904 17.870 7.902 177.078 o
-10 0 5 0.198 3.345 7.563 263.106 o
-10 0 6 105.588 92.144 7.224 79.550 o
-10 0 7 217.816 191.899 10.588 27.856 o
-10 0 8 23.234 10.627 9.706 138.503 o
-10 0 9 2.500 5.430 9.997 149.117 o
-10 0 10 10.550 5.827 10.957 120.305 o
-10 0 11 0.662 2.637 11.277 119.334 o
-10 1 1 846.545 900.716 20.013 2.595 o
-10 1 2 1001.690 1036.250 21.070 1.945 o
-10 1 3 318.714 378.572 12.925 13.186 o
-10 1 4 32.801 32.599 4.761 286.127 o
-10 1 5 152.864 153.482 8.843 44.715 o
-10 1 6 50.901 41.519 5.381 194.665 o
-10 1 7 314.965 326.367 13.294 14.295 o
-10 1 8 532.389 594.760 18.471 5.592 o
-10 1 9 420.512 513.805 17.114 7.848 o
-10 1 10 105.444 119.216 9.299 62.346 o
-10 1 11 23.274 16.144 11.994 94.447 o
-10 2 1 777.779 875.302 19.480 2.918 o
-10 2 2 206.480 221.443 9.997 28.073 o
-10 2 3 11.778 -2.288 7.359 253.697 o
-10 2 4 44.449 53.824 5.556 190.684 o
-10 2 5 542.916 584.763 16.299 5.688 o
-10 2 6 615.076 674.880 18.142 4.478 o
-10 2 7 938.021 1048.190 23.009 2.061 o
-10 2 8 350.961 374.499 14.661 11.641 o
-10 2 9 72.003 61.736 7.039 117.597 o
-10 2 10 34.408 30.107 11.354 95.585 o
-10 2 11 9.880 7.893 11.655 106.861 o
-10 3 1 53.442 52.951 5.478 175.304 o
-10 3 2 104.256 86.345 6.574 86.124 o
-10 3 3 3.751 -1.765 7.398 270.193 o
-10 3 4 198.268 220.968 10.016 29.088 o
-10 3 5 421.897 394.144 13.458 9.622 o
-10 3 6 16.391 10.840 8.542 180.059 o
-10 3 7 0.904 1.881 8.795 195.419 o
-10 3 8 108.839 101.675 8.310 69.444 o
-10 3 9 22.547 19.140 10.181 125.124 o
-10 3 10 24.956 10.743 11.102 108.739 o
-10 3 11 4.655 1.949 11.539 112.468 o
-10 4 1 189.760 189.475 9.279 33.380 o
-10 4 2 25.890 25.462 4.208 375.283 o
-10 4 3 169.042 146.336 8.426 42.704 o
-10 4 4 292.808 294.117 11.684 16.817 o
-10 4 5 872.361 958.331 20.799 2.400 o
-10 4 6 964.314 1017.500 22.040 2.046 o
-10 4 7 830.561 911.634 21.662 2.601 o
-10 4 8 291.251 324.718 13.672 15.263 o
-10 4 9 17.610 16.115 10.278 127.440 o
-10 4 10 12.187 9.347 11.025 117.138 o
-10 4 11 32.168 24.774 12.702 81.040 o
-10 5 1 10.246 20.769 7.641 219.661 o
-10 5 2 165.763 177.723 8.950 39.105 o
-10 5 3 787.022 875.951 19.383 2.880 o
-10 5 4 815.744 861.979 19.431 2.792 o
-10 5 5 923.109 959.233 21.089 2.244 o
-10 5 6 272.573 263.816 11.703 18.967 o
-10 5 7 216.703 212.232 11.141 26.274 o
-10 5 8 43.773 32.589 5.556 217.131 o
-10 5 9 28.342 21.729 10.646 111.777 o
-10 5 10 132.804 150.903 10.937 44.193 o
-10 5 11 143.289 175.939 12.402 36.358 o
-10 6 1 71.860 48.569 5.391 149.318 o
-10 6 2 37.006 33.287 4.693 271.326 o
-10 6 3 40.687 32.347 5.003 246.837 o
-10 6 4 0.132 -0.475 7.999 238.719 o
-10 6 5 50.008 38.737 5.663 192.058 o
-10 6 6 91.124 86.151 7.224 90.308 o
-10 6 7 45.421 34.470 5.343 217.600 o
-10 6 8 10.290 8.523 9.599 153.197 o
-10 6 9 28.970 20.420 10.957 106.570 o
-10 6 10 26.354 21.361 12.295 88.345 o
-10 6 11 38.286 30.883 13.953 66.750 o
-10 7 1 288.529 279.485 11.548 17.548 o
-10 7 2 459.078 453.941 14.370 8.047 o
-10 7 3 711.062 728.025 18.287 3.642 o
-10 7 4 974.678 1022.140 21.409 2.022 o
-10 7 5 770.835 840.424 20.110 3.008 o
-10 7 6 364.332 370.533 14.050 11.434 o
-10 7 7 77.763 71.869 7.030 107.744 o
-10 7 8 2.089 2.211 9.813 156.245 o
-10 7 9 65.570 57.664 7.253 123.177 o
-10 7 10 120.503 122.832 10.394 52.377 o
-10 8 1 399.250 418.530 14.050 9.782 o
-10 8 2 939.247 1025.800 21.574 2.104 o
-10 8 3 646.716 699.276 17.841 4.164 o
-10 8 4 321.833 340.155 13.245 13.730 o
-10 8 5 193.231 185.907 9.987 32.169 o
-10 8 6 131.070 127.399 8.959 53.767 o
-10 8 7 84.943 74.913 7.059 100.275 o
-10 8 8 136.351 158.233 10.288 44.379 o
-10 8 9 291.730 317.000 15.388 14.685 o
-10 8 10 171.405 189.145 13.129 30.226 o
-10 9 1 14.978 20.915 8.707 169.867 o
-10 9 2 4.395 -4.034 8.717 195.609 o
-10 9 3 106.604 89.089 7.127 80.422 o
-10 9 4 175.191 189.717 10.297 34.143 o
-10 9 5 21.074 10.617 9.134 155.665 o
-10 9 6 2.517 2.909 9.076 181.304 o
-10 9 7 15.781 9.163 10.055 136.316 o
-10 9 8 16.847 16.067 11.190 109.963 o
-10 9 9 18.048 12.789 12.130 95.144 o
-10 10 1 681.747 753.846 19.169 3.710 o
-10 10 2 798.581 855.812 20.537 2.849 o
-10 10 3 724.954 836.759 20.537 3.215 o
-10 10 4 189.818 197.261 10.491 31.173 o
-10 10 5 125.479 141.120 9.173 52.671 o
-10 10 6 8.687 6.361 9.842 148.429 o
-10 10 7 87.514 73.246 7.670 93.484 o
-10 10 8 144.406 135.205 10.375 44.920 o
-10 10 9 61.138 42.693 6.981 141.059 o
-10 11 1 274.529 292.866 12.828 17.354 o
-10 11 2 156.103 151.650 9.502 42.678 o
-10 11 3 24.404 21.497 9.551 136.731 o
-10 11 4 134.925 125.150 8.969 52.912 o
-10 11 5 126.095 118.682 8.756 57.485 o
-10 11 6 102.013 87.208 7.999 78.053 o
-10 11 7 303.619 323.865 15.020 14.184 o
-10 11 8 196.944 228.182 13.313 25.158 o
-10 12 1 76.244 58.798 6.816 117.665 o
-10 12 2 89.929 75.602 7.233 94.725 o
-10 12 3 16.577 9.085 9.454 151.541 o
-10 12 4 28.686 11.412 9.784 132.034 o
-10 12 5 16.189 7.844 10.356 129.412 o
-10 12 6 4.274 1.823 10.899 125.986 o
-10 12 7 17.212 16.367 12.256 93.018 o
-10 12 8 0.961 0.970 12.363 99.588 o
-10 13 1 300.911 352.489 14.661 13.842 o
-10 13 2 210.231 226.486 11.810 25.532 o
-10 13 3 25.126 24.609 10.307 119.057 o
-10 13 4 45.555 29.690 11.141 93.265 o
-10 13 5 114.540 112.176 9.153 60.995 o
-10 13 6 166.733 179.837 11.655 33.924 o
-10 13 7 145.729 138.007 11.238 42.039 o
-10 14 1 27.971 27.712 10.695 109.441 o
-10 14 2 33.610 23.135 10.831 105.377 o
-10 14 3 100.076 111.304 9.270 66.037 o
-10 14 4 138.824 141.246 10.084 46.324 o
-10 14 5 179.180 180.118 11.878 31.774 o
-10 14 6 117.285 118.256 10.346 54.116 o
-10 15 1 6.093 -1.910 10.821 127.260 o
-10 15 2 3.299 1.125 10.685 131.717 o
-10 15 3 30.986 16.648 11.432 99.155 o
-10 15 4 4.628 6.060 11.471 112.884 o
-10 15 5 0.007 -0.640 12.227 102.280 o
-10 16 1 36.278 33.258 11.975 86.321 o
-10 16 2 27.254 21.574 12.198 89.204 o
-10 16 3 53.989 41.985 6.875 153.110 o
-10 16 4 131.490 126.818 10.550 48.447 o
-10 17 1 21.310 20.226 12.324 89.964 o
-10 17 2 44.289 39.764 13.361 69.020 o
-10 17 3 92.675 94.471 9.173 73.313 o
-9 -12 3 66.258 61.785 8.058 109.758 o
-9 -12 4 40.164 30.369 13.109 73.675 o
-9 -12 5 19.445 16.755 12.566 88.062 o
-9 -12 6 4.511 3.859 12.198 100.578 o
-9 -11 1 37.137 32.405 13.381 71.744 o
-9 -11 2 19.841 17.647 12.334 90.807 o
-9 -11 3 1.166 2.123 11.568 113.347 o
-9 -11 4 4.684 2.230 11.422 114.647 o
-9 -11 5 19.726 15.427 11.577 102.272 o
-9 -11 6 62.494 52.951 7.350 127.381 o
-9 -11 7 58.291 44.845 7.311 137.239 o
-9 -11 8 57.326 58.468 7.961 120.399 o
-9 -10 1 40.387 25.996 12.246 83.060 o
-9 -10 2 77.298 72.063 8.523 92.828 o
-9 -10 3 61.538 52.273 6.952 135.239 o
-9 -10 4 1.436 -0.640 11.131 122.713 o
-9 -10 5 8.477 5.857 10.850 123.683 o
-9 -10 6 2.041 -1.454 11.190 121.159 o
-9 -10 7 1.619 1.784 11.190 120.935 o
-9 -10 8 10.382 8.649 11.810 103.857 o
-9 -10 9 30.813 20.624 12.634 82.900 o
-9 -9 1 107.900 105.408 9.211 64.437 o
-9 -9 2 97.580 70.405 7.844 86.443 o
-9 -9 3 73.221 60.951 6.933 118.140 o
-9 -9 4 41.044 25.957 10.802 101.062 o
-9 -9 5 37.506 22.689 10.637 106.391 o
-9 -9 6 130.125 127.419 9.512 52.170 o
-9 -9 7 123.352 142.778 10.404 48.959 o
-9 -9 8 168.110 195.302 12.246 31.654 o
-9 -9 9 88.027 99.891 9.328 73.182 o
-9 -9 10 15.419 11.170 12.450 91.860 o
-9 -8 1 1.200 -0.087 10.171 146.969 o
-9 -8 2 0.096 0.737 9.677 162.900 o
-9 -8 3 58.509 51.962 6.215 152.553 o
-9 -8 4 74.764 65.508 6.807 115.941 o
-9 -8 5 158.747 196.301 11.141 34.791 o
-9 -8 6 131.634 164.875 10.530 44.042 o
-9 -8 7 92.311 104.788 8.659 74.344 o
-9 -8 8 34.032 27.722 11.490 94.463 o
-9 -8 9 0.145 2.346 11.073 124.057 o
-9 -8 10 2.503 0.553 11.839 108.038 o
-9 -7 1 184.871 177.064 10.559 33.227 o
-9 -7 2 25.917 21.972 9.754 130.718 o
-9 -7 3 12.235 6.235 9.241 163.520 o
-9 -7 4 9.293 -0.330 9.493 161.188 o
-9 -7 5 10.012 5.507 9.241 166.122 o
-9 -7 6 98.637 95.023 8.174 76.672 o
-9 -7 7 111.994 110.489 8.911 63.353 o
-9 -7 8 140.520 150.331 10.007 45.077 o
-9 -7 9 72.601 58.323 6.981 119.444 o
-9 -7 10 13.044 -0.165 11.907 102.906 o
-9 -7 11 0.304 -0.931 12.149 103.489 o
-9 -6 1 139.121 146.928 9.357 47.591 o
-9 -6 2 52.687 41.587 5.963 176.171 o
-9 -6 3 109.074 104.148 7.621 72.365 o
-9 -6 4 394.997 424.445 14.700 9.698 o
-9 -6 5 462.879 523.696 16.455 7.142 o
-9 -6 6 432.539 502.684 16.532 7.812 o
-9 -6 7 292.171 316.574 13.652 15.421 o
-9 -6 8 93.395 113.320 8.698 71.618 o
-9 -6 9 103.902 89.904 8.096 75.776 o
-9 -6 10 39.978 34.810 12.314 80.913 o
-9 -6 11 17.263 14.554 12.295 92.784 o
-9 -5 1 157.042 144.397 9.144 44.103 o
-9 -5 2 210.645 212.969 10.530 27.528 o
-9 -5 3 310.855 323.768 12.741 14.734 o
-9 -5 4 232.470 241.815 11.257 23.197 o
-9 -5 5 58.746 60.233 6.584 139.949 o
-9 -5 6 67.760 55.414 6.099 139.218 o
-9 -5 7 9.740 8.736 8.930 175.427 o
-9 -5 8 1.705 2.443 9.289 174.298 o
-9 -5 9 104.475 98.223 8.475 71.290 o
-9 -5 10 61.468 74.351 7.835 111.336 o
-9 -5 11 42.303 38.068 6.535 183.511 o
-9 -5 12 23.630 21.225 12.993 80.987 o
-9 -4 1 14.018 4.974 8.174 202.255 o
-9 -4 2 13.937 10.714 7.980 206.326 o
-9 -4 3 33.321 24.628 8.484 152.715 o
-9 -4 4 613.066 614.598 16.930 4.805 o
-9 -4 5 329.271 353.536 13.245 13.167 o
-9 -4 6 300.510 333.309 13.032 14.883 o
-9 -4 7 266.141 281.066 12.479 18.397 o
-9 -4 8 64.502 45.757 6.167 149.223 o
-9 -4 9 1.119 -0.465 9.764 159.474 o
-9 -4 10 4.268 3.374 10.482 135.493 o
-9 -4 11 40.143 32.502 12.508 79.232 o
-9 -4 12 39.021 31.843 13.429 70.887 o
-9 -3 1 506.142 544.969 15.737 6.429 o
-9 -3 2 678.941 722.460 17.851 3.869 o
-9 -3 3 1039.090 1087.120 21.613 1.804 o
-9 -3 4 920.786 1036.410 20.866 2.147 o
-9 -3 5 473.333 486.656 14.923 7.439 o
-9 -3 6 372.280 435.896 14.409 10.186 o
-9 -3 7 283.166 311.182 12.780 16.394 o
-9 -3 8 319.134 385.184 14.603 12.548 o
-9 -3 9 110.947 118.673 8.872 62.382 o
-9 -3 10 196.538 223.974 12.557 26.250 o
-9 -3 11 186.648 219.417 12.944 27.053 o
-9 -3 12 71.917 64.868 8.164 102.809 o
-9 -2 1 261.171 269.479 10.937 19.992 o
-9 -2 2 31.233 18.772 7.718 181.963 o
-9 -2 3 93.552 89.739 6.933 89.641 o
-9 -2 4 5.224 -0.019 7.321 272.064 o
-9 -2 5 101.108 103.954 7.195 78.923 o
-9 -2 6 64.492 52.176 5.663 153.363 o
-9 -2 7 265.620 284.508 12.111 18.523 o
-9 -2 8 364.873 418.763 14.903 10.515 o
-9 -2 9 43.095 41.985 5.954 195.062 o
-9 -2 10 35.178 26.703 10.986 101.248 o
-9 -2 11 14.323 5.876 11.500 108.084 o
-9 -2 12 4.940 3.180 11.985 104.078 o
-9 -1 1 275.389 274.375 10.782 18.912 o
-9 -1 2 612.148 603.845 15.475 4.934 o
-9 -1 3 985.373 1058.820 20.527 1.963 o
-9 -1 4 216.050 201.896 9.570 28.535 o
-9 -1 5 216.662 231.392 10.404 25.969 o
-9 -1 6 233.984 250.358 10.918 22.947 o
-9 -1 7 9.415 9.202 8.232 203.527 o
-9 -1 8 62.352 51.768 6.206 147.311 o
-9 -1 9 173.857 181.446 10.724 34.307 o
-9 -1 10 124.760 131.617 9.619 52.741 o
-9 -1 11 50.153 42.295 6.962 156.454 o
-9 -1 12 11.965 7.088 12.188 97.540 o
-9 0 1 1050.780 1050.440 20.469 1.828 o
-9 0 2 1102.650 1099.700 20.508 1.677 o
-9 0 3 987.410 1036.210 19.848 1.991 o
-9 0 4 543.322 604.446 15.437 5.631 o
-9 0 5 1141.550 1296.770 22.728 1.436 o
-9 0 6 1710.030 1937.870 28.740 0.668 o
-9 0 7 298.494 322.430 12.644 15.385 o
-9 0 8 585.126 640.206 18.113 4.875 o
-9 0 9 376.666 417.774 15.446 10.100 o
-9 0 10 222.996 242.513 12.624 22.857 o
-9 0 11 117.830 116.491 10.007 55.574 o
-9 0 12 22.581 12.402 12.295 91.283 o
-9 1 1 2.766 3.568 6.816 313.791 o
-9 1 2 21.446 18.374 7.127 223.700 o
-9 1 3 111.351 121.872 7.437 68.059 o
-9 1 4 380.488 419.121 12.906 10.477 o
-9 1 5 686.299 747.107 17.560 3.756 o
-9 1 6 606.356 631.693 16.455 4.813 o
-9 1 7 30.556 19.557 8.329 163.310 o
-9 1 8 64.014 41.005 5.537 165.697 o
-9 1 9 17.477 11.587 9.454 149.586 o
-9 1 10 27.808 19.906 10.365 117.742 o
-9 1 11 11.300 5.954 11.238 114.281 o
-9 1 12 1.956 -0.601 12.014 105.247 o
-9 2 1 991.250 988.506 19.024 2.049 o
-9 2 2 480.855 526.760 13.924 7.091 o
-9 2 3 238.930 277.546 10.598 21.598 o
-9 2 4 275.631 292.595 11.141 18.128 o
-9 2 5 74.062 86.229 6.816 106.948 o
-9 2 6 107.558 109.238 7.495 72.517 o
-9 2 7 362.966 382.256 13.381 11.449 o
-9 2 8 319.315 343.393 13.749 13.601 o
-9 2 9 196.722 208.703 11.296 28.544 o
-9 2 10 21.026 18.142 10.588 118.240 o
-9 2 11 18.588 14.641 11.306 107.439 o
-9 2 12 0.143 -0.873 12.392 99.534 o
-9 3 1 1028.360 1043.200 19.635 1.891 o
-9 3 2 365.147 399.622 12.062 11.391 o
-9 3 3 1231.820 1291.190 21.855 1.320 o
-9 3 4 2108.730 2344.880 29.816 0.455 o
-9 3 5 1269.560 1314.620 22.922 1.254 o
-9 3 6 891.160 903.867 19.577 2.446 o
-9 3 7 819.977 865.693 20.139 2.754 o
-9 3 8 575.157 632.866 17.841 5.014 o
-9 3 9 129.358 147.325 9.473 49.749 o
-9 3 10 106.270 108.608 9.124 64.886 o
-9 3 11 26.551 27.256 11.926 91.901 o
-9 3 12 27.229 16.290 12.896 81.738 o
-9 4 1 130.775 104.303 7.001 65.219 o
-9 4 2 569.741 618.322 14.952 5.303 o
-9 4 3 1560.440 1700.630 25.268 0.821 o
-9 4 4 1998.000 2056.020 28.042 0.532 o
-9 4 5 67.370 64.073 6.167 133.200 o
-9 4 6 14.713 5.071 7.776 219.400 o
-9 4 7 0.285 1.425 8.067 233.211 o
-9 4 8 27.096 18.840 9.153 145.158 o
-9 4 9 34.827 26.684 10.026 117.100 o
-9 4 10 44.604 26.859 11.393 91.194 o
-9 4 11 15.458 7.350 11.645 104.773 o
-9 5 1 113.642 130.657 7.515 64.831 o
-9 5 2 29.035 21.729 7.379 195.054 o
-9 5 3 270.883 288.736 10.831 18.710 o
-9 5 4 173.497 157.943 8.746 39.902 o
-9 5 5 1427.650 1577.500 25.191 0.961 o
-9 5 6 427.555 435.062 14.127 8.912 o
-9 5 7 290.203 319.754 12.741 15.824 o
-9 5 8 72.261 71.840 7.020 112.790 o
-9 5 9 0.419 -0.407 9.910 155.392 o
-9 5 10 36.001 29.089 11.316 95.609 o
-9 5 11 5.448 3.539 11.994 103.659 o
-9 6 1 1013.230 1065.970 20.314 1.893 o
-9 6 2 2285.950 2495.900 30.951 0.394 o
-9 6 3 1570.850 1591.260 24.706 0.852 o
-9 6 4 755.872 805.780 17.851 3.210 o
-9 6 5 725.099 694.738 17.298 3.689 o
-9 6 6 417.931 435.906 14.351 9.083 o
-9 6 7 318.602 330.846 13.061 14.122 o
-9 6 8 148.347 171.896 9.977 41.118 o
-9 6 9 97.101 93.268 8.300 77.104 o
-9 6 10 100.362 97.079 9.192 69.254 o
-9 6 11 63.710 68.873 8.009 109.548 o
-9 7 1 786.746 872.044 18.423 2.909 o
-9 7 2 1299.730 1374.200 23.048 1.184 o
-9 7 3 148.610 169.956 8.688 44.129 o
-9 7 4 0.643 4.645 7.447 268.658 o
-9 7 5 6.592 1.862 7.573 250.028 o
-9 7 6 75.168 48.801 5.798 138.304 o
-9 7 7 57.848 54.823 6.118 153.235 o
-9 7 8 91.853 77.599 7.253 92.501 o
-9 7 9 59.748 37.689 6.467 156.365 o
-9 7 10 23.019 11.403 11.703 99.760 o
-9 7 11 9.399 5.323 12.469 94.533 o
-9 8 1 23.156 21.972 7.679 193.812 o
-9 8 2 4.378 -0.417 7.350 272.098 o
-9 8 3 959.613 1035.310 20.857 2.049 o
-9 8 4 467.618 467.991 14.389 7.759 o
-9 8 5 436.321 469.920 15.029 8.246 o
-9 8 6 87.226 76.707 7.030 98.081 o
-9 8 7 8.674 7.883 9.114 170.564 o
-9 8 8 49.016 39.357 6.099 181.721 o
-9 8 9 42.514 38.048 6.409 186.788 o
-9 8 10 30.574 21.778 12.237 87.473 o
-9 9 1 866.704 935.283 20.091 2.467 o
-9 9 2 566.009 659.899 16.736 5.037 o
-9 9 3 1042.470 1076.070 21.584 1.808 o
-9 9 4 351.115 364.638 13.080 12.208 o
-9 9 5 425.096 425.948 14.399 9.026 o
-9 9 6 248.440 308.293 12.702 18.530 o
-9 9 7 109.322 100.783 8.271 69.630 o
-9 9 8 206.891 228.997 12.314 25.226 o
-9 9 9 115.789 129.086 9.774 55.204 o
-9 9 10 21.474 8.310 12.411 90.822 o
-9 10 1 277.785 312.647 12.217 16.902 o
-9 10 2 3.102 5.420 7.825 238.385 o
-9 10 3 77.760 46.930 5.779 136.405 o
-9 10 4 2.913 3.326 8.242 217.801 o
-9 10 5 33.257 27.916 9.318 131.635 o
-9 10 6 49.799 42.605 5.779 185.379 o
-9 10 7 48.576 34.955 5.478 204.831 o
-9 10 8 19.007 9.774 10.908 115.644 o
-9 10 9 16.410 11.742 11.820 100.637 o
-9 11 1 309.575 342.259 13.012 14.283 o
-9 11 2 503.331 512.283 15.698 6.699 o
-9 11 3 547.872 602.565 17.424 5.460 o
-9 11 4 27.081 16.804 9.260 143.459 o
-9 11 5 37.024 30.078 4.887 268.451 o
-9 11 6 20.775 16.658 10.142 128.039 o
-9 11 7 39.198 30.078 11.209 95.307 o
-9 11 8 54.627 44.913 6.341 161.358 o
-9 11 9 34.015 17.405 12.305 86.201 o
-9 12 1 321.740 354.738 13.788 13.268 o
-9 12 2 405.577 436.565 15.165 9.223 o
-9 12 3 161.850 159.145 9.851 39.962 o
-9 12 4 265.402 283.102 12.654 18.284 o
-9 12 5 94.877 79.345 7.466 88.222 o
-9 12 6 167.420 169.714 11.054 35.682 o
-9 12 7 169.248 174.271 11.451 34.322 o
-9 12 8 60.202 47.677 6.933 139.988 o
-9 13 1 0.718 1.697 8.911 190.733 o
-9 13 2 6.675 5.614 9.153 172.509 o
-9 13 3 4.137 4.596 9.085 178.251 o
-9 13 4 47.398 32.618 5.226 218.646 o
-9 13 5 11.760 7.592 10.453 130.140 o
-9 13 6 31.176 19.111 11.548 96.837 o
-9 13 7 12.560 7.689 11.820 103.014 o
-9 13 8 23.178 14.127 12.780 84.656 o
-9 14 1 331.625 345.468 14.312 12.904 o
-9 14 2 149.721 130.114 9.260 47.301 o
-9 14 3 12.451 7.922 9.948 141.971 o
-9 14 4 21.249 15.834 10.598 118.611 o
-9 14 5 71.049 62.512 7.466 112.761 o
-9 14 6 45.008 35.750 6.215 189.832 o
-9 14 7 54.474 39.929 6.661 158.482 o
-9 15 1 134.166 136.805 9.706 49.156 o
-9 15 2 77.911 70.201 7.650 101.772 o
-9 15 3 67.270 61.562 7.321 118.600 o
-9 15 4 108.426 113.107 9.561 61.141 o
-9 15 5 78.423 73.682 8.203 94.629 o
-9 15 6 42.168 32.027 13.235 71.731 o
-9 16 1 0.006 4.315 10.569 135.601 o
-9 16 2 6.746 6.642 10.850 124.420 o
-9 16 3 1.169 1.241 11.141 122.330 o
-9 16 4 11.103 6.943 11.762 104.723 o
-9 16 5 0.781 -1.018 12.217 102.184 o
-9 17 1 29.043 20.925 11.917 92.297 o
-9 17 2 9.583 7.379 11.665 106.926 o
-9 17 3 24.034 21.972 12.324 88.694 o
-9 17 4 25.063 15.359 12.760 84.110 o
-9 18 1 12.512 7.107 12.334 95.180 o
-9 18 2 28.741 22.253 13.148 77.700 o
-8 -13 2 69.009 64.335 8.261 104.092 o
-8 -13 3 85.247 73.692 8.436 88.153 o
-8 -13 4 69.366 58.294 7.873 110.955 o
-8 -13 5 67.296 43.982 6.904 134.130 o
-8 -13 6 35.262 22.602 13.003 77.261 o
-8 -13 7 5.513 4.538 12.479 95.763 o
-8 -12 1 0.669 -0.766 12.130 103.694 o
-8 -12 2 0.567 2.928 11.548 113.808 o
-8 -12 3 8.188 5.352 11.500 110.923 o
-8 -12 4 12.275 4.402 11.577 107.943 o
-8 -12 5 0.626 0.097 11.393 117.505 o
-8 -12 6 4.986 2.657 11.490 113.101 o
-8 -12 7 0.005 0.785 11.587 113.728 o
-8 -12 8 1.295 1.454 11.917 106.930 o
-8 -11 1 82.124 72.945 8.116 93.218 o
-8 -11 2 167.005 169.064 11.073 35.766 o
-8 -11 3 174.565 180.089 11.364 33.248 o
-8 -11 4 205.607 196.126 11.636 27.838 o
-8 -11 5 30.910 19.305 11.122 103.239 o
-8 -11 6 27.345 17.240 11.170 104.772 o
-8 -11 7 50.678 38.591 6.206 176.589 o
-8 -11 8 54.122 41.607 6.613 158.806 o
-8 -11 9 97.285 102.189 9.502 67.690 o
-8 -10 1 87.583 84.018 8.096 86.418 o
-8 -10 2 115.066 107.144 8.843 63.136 o
-8 -10 3 122.757 110.237 8.746 60.148 o
-8 -10 4 202.643 210.622 11.645 27.347 o
-8 -10 5 48.501 31.416 5.634 204.461 o
-8 -10 6 60.386 61.756 7.233 126.737 o
-8 -10 7 54.523 56.966 6.720 145.191 o
-8 -10 8 83.287 94.655 8.756 80.769 o
-8 -10 9 112.052 115.347 10.200 56.710 o
-8 -10 10 33.388 30.679 12.722 79.506 o
-8 -9 1 0.086 -2.366 9.522 168.580 o
-8 -9 2 8.803 8.513 9.735 150.510 o
-8 -9 3 15.154 12.954 9.638 146.002 o
-8 -9 4 17.951 9.047 9.444 150.580 o
-8 -9 5 0.537 1.261 9.105 183.199 o
-8 -9 6 10.539 2.443 9.687 153.017 o
-8 -9 7 1.164 3.219 9.561 164.827 o
-8 -9 8 1.740 -3.200 10.676 133.174 o
-8 -9 9 0.559 1.319 10.802 130.392 o
-8 -9 10 0.247 -0.078 11.597 113.600 o
-8 -9 11 3.556 -2.986 12.595 95.327 o
-8 -8 1 290.520 297.743 12.877 16.317 o
-8 -8 2 551.585 583.318 17.938 5.487 o
-8 -8 3 239.686 241.873 11.878 22.097 o
-8 -8 4 131.827 112.709 8.436 57.746 o
-8 -8 5 193.900 224.721 11.122 28.139 o
-8 -8 6 246.302 310.223 13.391 18.206 o
-8 -8 7 222.390 258.076 12.334 22.499 o
-8 -8 8 262.183 259.918 12.964 19.046 o
-8 -8 9 168.846 190.784 11.151 33.654 o
-8 -8 10 82.334 65.644 8.271 94.051 o
-8 -8 11 19.449 13.924 12.295 92.123 o
-8 -7 1 275.964 303.697 12.838 16.962 o
-8 -7 2 505.816 583.677 17.065 6.073 o
-8 -7 3 78.213 77.677 6.749 107.751 o
-8 -7 4 153.859 171.023 9.590 40.917 o
-8 -7 5 176.098 201.935 10.346 33.001 o
-8 -7 6 241.642 248.428 11.723 21.786 o
-8 -7 7 378.746 387.822 14.467 10.654 o
-8 -7 8 193.572 194.304 11.015 30.178 o
-8 -7 9 147.943 162.471 10.627 40.675 o
-8 -7 10 102.596 109.742 9.134 66.060 o
-8 -7 11 20.024 21.332 11.926 95.664 o
-8 -7 12 3.686 2.502 12.586 95.055 o
-8 -6 1 0.001 0.436 8.193 227.420 o
-8 -6 2 56.458 47.909 5.808 167.269 o
-8 -6 3 1.303 0.495 7.534 265.841 o
-8 -6 4 6.826 1.619 7.670 243.896 o
-8 -6 5 16.468 18.161 8.261 185.298 o
-8 -6 6 4.104 3.394 8.222 216.840 o
-8 -6 7 3.027 -1.008 8.727 196.927 o
-8 -6 8 0.859 2.143 9.008 186.278 o
-8 -6 9 13.225 8.610 9.871 143.148 o
-8 -6 10 32.680 24.241 10.840 105.428 o
-8 -6 11 0.572 1.745 11.015 125.300 o
-8 -6 12 1.022 -1.348 12.198 102.427 o
-8 -5 1 313.008 337.362 12.469 14.426 o
-8 -5 2 322.410 324.748 11.926 14.468 o
-8 -5 3 204.809 190.755 9.250 31.099 o
-8 -5 4 1093.150 1218.650 22.718 1.573 o
-8 -5 5 495.819 542.759 15.456 6.611 o
-8 -5 6 503.131 539.103 15.776 6.507 o
-8 -5 7 449.606 458.498 14.923 8.114 o
-8 -5 8 143.473 141.081 9.192 47.681 o
-8 -5 9 110.054 115.386 8.969 62.890 o
-8 -5 10 0.218 -3.820 10.055 151.084 o
-8 -5 11 49.797 43.711 6.273 171.925 o
-8 -5 12 45.105 35.595 6.400 184.472 o
-8 -4 1 518.957 549.488 14.923 6.295 o
-8 -4 2 215.455 179.497 8.824 30.879 o
-8 -4 3 577.088 600.219 15.592 5.284 o
-8 -4 4 504.282 489.187 14.098 7.003 o
-8 -4 5 650.960 682.627 16.716 4.238 o
-8 -4 6 644.687 616.508 16.561 4.548 o
-8 -4 7 417.760 466.720 15.117 8.638 o
-8 -4 8 304.643 344.916 13.323 14.330 o
-8 -4 9 128.412 164.565 9.784 46.871 o
-8 -4 10 25.960 26.451 10.326 117.557 o
-8 -4 11 72.237 68.737 7.495 108.659 o
-8 -4 12 79.487 75.146 8.542 90.293 o
-8 -3 1 12.916 15.087 7.039 251.981 o
-8 -3 2 145.119 109.529 6.991 58.515 o
-8 -3 3 31.717 30.621 4.431 313.152 o
-8 -3 4 214.010 198.541 9.483 29.091 o
-8 -3 5 0.689 -1.231 6.913 317.695 o
-8 -3 6 4.866 -0.388 7.515 259.625 o
-8 -3 7 6.056 -0.456 8.009 227.586 o
-8 -3 8 169.573 153.637 9.512 39.667 o
-8 -3 9 5.120 5.624 8.717 191.110 o
-8 -3 10 7.685 7.059 9.706 152.901 o
-8 -3 11 13.922 6.778 10.879 119.821 o
-8 -3 12 1.077 -0.339 11.742 110.481 o
-8 -2 1 688.722 643.958 15.543 4.149 o
-8 -2 2 741.690 746.661 16.377 3.472 o
-8 -2 3 1290.460 1363.950 21.991 1.205 o
-8 -2 4 841.277 921.485 18.336 2.605 o
-8 -2 5 478.531 523.075 14.040 7.146 o
-8 -2 6 309.914 326.910 11.946 14.988 o
-8 -2 7 161.314 175.115 9.095 39.978 o
-8 -2 8 5.259 12.450 8.174 210.151 o
-8 -2 9 196.618 219.446 11.199 28.040 o
-8 -2 10 251.485 282.511 13.090 18.929 o
-8 -2 11 175.900 202.090 11.946 30.658 o
-8 -2 12 64.613 59.167 7.544 119.245 o
-8 -1 1 267.286 241.059 9.580 21.394 o
-8 -1 2 665.351 587.361 14.205 4.597 o
-8 -1 3 1230.040 1270.420 20.799 1.342 o
-8 -1 4 723.229 739.176 16.299 3.599 o
-8 -1 5 889.057 896.488 18.248 2.485 o
-8 -1 6 585.283 599.947 15.611 5.202 o
-8 -1 7 477.862 526.498 15.049 7.033 o
-8 -1 8 34.438 29.603 4.460 301.148 o
-8 -1 9 179.551 198.648 10.598 32.368 o
-8 -1 10 118.508 115.502 8.814 60.445 o
-8 -1 11 87.886 82.612 8.329 84.822 o
-8 -1 12 27.554 18.132 12.469 86.333 o
-8 0 1 69.115 61.765 5.595 140.677 o
-8 0 2 48.178 43.623 4.974 209.931 o
-8 0 3 43.168 35.993 5.003 233.440 o
-8 0 4 3.000 1.794 6.215 376.971 o
-8 0 5 60.068 47.744 5.255 172.414 o
-8 0 6 53.603 41.005 5.042 197.996 o
-8 0 7 34.910 19.868 7.582 179.791 o
-8 0 8 74.030 77.725 6.894 109.918 o
-8 0 9 96.103 85.473 7.679 84.004 o
-8 0 10 0.252 -1.542 9.473 170.157 o
-8 0 11 19.649 12.974 10.763 117.187 o
-8 0 12 2.429 7.282 11.471 113.582 o
-8 1 1 1385.900 1340.360 21.041 1.119 o
-8 1 2 1809.940 1983.550 25.084 0.619 o
-8 1 3 1135.760 1278.290 20.188 1.473 o
-8 1 4 775.190 851.750 16.978 3.033 o
-8 1 5 460.890 505.185 13.798 7.614 o
-8 1 6 82.508 71.306 6.235 111.996 o
-8 1 7 171.300 170.228 8.921 38.808 o
-8 1 8 636.978 674.676 17.870 4.323 o
-8 1 9 666.782 769.535 19.800 3.730 o
-8 1 10 167.943 168.298 10.860 36.070 o
-8 1 11 147.337 166.281 11.102 39.348 o
-8 1 12 23.888 18.879 12.208 90.805 o
-8 2 1 1568.200 1582.770 22.408 0.862 o
-8 2 2 915.387 895.480 17.027 2.418 o
-8 2 3 704.634 722.498 15.437 3.784 o
-8 2 4 95.275 85.317 6.196 95.403 o
-8 2 5 539.629 555.926 14.166 6.044 o
-8 2 6 44.397 21.535 7.359 170.459 o
-8 2 7 247.335 259.453 10.753 21.549 o
-8 2 8 488.641 536.873 16.154 6.690 o
-8 2 9 152.739 156.769 9.793 42.190 o
-8 2 10 112.443 104.497 8.795 64.897 o
-8 2 11 7.085 3.326 10.831 125.576 o
-8 2 12 4.292 3.559 11.732 108.678 o
-8 3 1 141.015 135.709 7.136 54.935 o
-8 3 2 154.378 153.308 7.582 47.216 o
-8 3 3 22.712 25.026 4.499 373.806 o
-8 3 4 4.746 3.054 6.157 372.361 o
-8 3 5 393.201 357.443 11.519 11.278 o
-8 3 6 174.291 151.252 8.203 41.431 o
-8 3 7 32.468 21.642 4.354 337.110 o
-8 3 8 70.207 61.077 6.613 125.417 o
-8 3 9 87.538 85.754 7.835 87.986 o
-8 3 10 5.794 -0.853 10.045 147.292 o
-8 3 11 14.074 6.962 10.879 119.687 o
-8 3 12 0.238 1.445 11.771 109.983 o
-8 4 1 1924.260 1901.840 24.987 0.590 o
-8 4 2 596.609 683.228 14.806 4.749 o
-8 4 3 431.704 435.266 12.023 9.109 o
-8 4 4 51.719 77.415 5.789 151.406 o
-8 4 5 364.468 368.051 11.926 11.963 o
-8 4 6 1512.610 1610.020 25.172 0.884 o
-8 4 7 1588.340 1724.050 27.450 0.792 o
-8 4 8 739.248 841.404 20.479 3.138 o
-8 4 9 223.628 240.118 11.985 23.458 o
-8 4 10 99.526 107.095 9.018 68.482 o
-8 4 11 20.139 22.292 11.345 104.235 o
-8 4 12 15.196 12.266 12.392 92.554 o
-8 5 1 223.839 265.523 9.522 24.222 o
-8 5 2 172.435 174.523 7.883 39.916 o
-8 5 3 280.317 333.600 10.705 16.813 o
-8 5 4 6.580 4.664 6.332 342.542 o
-8 5 5 87.481 88.828 6.700 96.085 o
-8 5 6 554.522 560.493 15.262 5.764 o
-8 5 7 420.749 438.252 14.593 8.957 o
-8 5 8 104.319 92.619 7.776 76.797 o
-8 5 9 33.727 22.379 9.803 123.607 o
-8 5 10 20.903 16.678 10.521 120.091 o
-8 5 11 7.370 5.924 11.170 117.544 o
-8 5 12 19.137 10.171 12.896 85.070 o
-8 6 1 343.701 333.620 10.840 13.669 o
-8 6 2 161.289 119.914 6.875 51.646 o
-8 6 3 92.318 65.964 5.614 111.074 o
-8 6 4 523.671 449.112 13.177 7.094 o
-8 6 5 101.430 106.775 7.233 77.742 o
-8 6 6 112.946 78.675 6.690 82.365 o
-8 6 7 121.567 112.719 8.116 62.752 o
-8 6 8 70.142 47.677 6.021 142.429 o
-8 6 9 17.357 12.353 9.667 143.626 o
-8 6 10 2.874 2.414 10.375 139.431 o
-8 6 11 0.663 -0.979 11.597 113.429 o
-8 7 1 414.100 435.547 12.392 9.471 o
-8 7 2 104.752 152.125 7.699 63.323 o
-8 7 3 16.558 15.475 6.768 257.900 o
-8 7 4 1411.990 1521.000 23.824 1.001 o
-8 7 5 1486.000 1524.160 24.861 0.937 o
-8 7 6 1343.080 1406.780 24.919 1.114 o
-8 7 7 580.426 640.419 17.938 4.926 o
-8 7 8 144.771 139.714 9.357 47.076 o
-8 7 9 64.543 74.400 7.146 117.328 o
-8 7 10 44.985 37.486 6.293 185.932 o
-8 7 11 31.278 23.029 12.440 84.574 o
-8 8 1 11.071 18.045 6.933 259.291 o
-8 8 2 1.017 -0.068 6.516 355.998 o
-8 8 3 144.270 155.053 8.116 48.443 o
-8 8 4 830.771 797.945 18.055 2.888 o
-8 8 5 895.117 915.144 19.945 2.410 o
-8 8 6 302.631 299.896 12.237 15.904 o
-8 8 7 55.695 51.865 6.002 161.188 o
-8 8 8 27.578 20.052 9.735 130.592 o
-8 8 9 13.662 8.717 10.472 128.133 o
-8 8 10 39.019 33.714 12.130 83.442 o
-8 8 11 3.066 3.859 12.275 99.823 o
-8 9 1 4.145 1.115 6.690 324.614 o
-8 9 2 5.288 2.405 6.836 305.836 o
-8 9 3 407.789 404.528 13.226 9.885 o
-8 9 4 108.780 95.082 7.398 76.005 o
-8 9 5 228.273 200.509 10.249 26.527 o
-8 9 6 285.030 280.164 12.043 17.501 o
-8 9 7 58.057 45.107 5.779 167.541 o
-8 9 8 23.126 15.262 10.016 129.617 o
-8 9 9 12.212 4.140 11.005 118.877 o
-8 9 10 5.704 1.542 11.732 108.516 o
-8 10 1 1.369 -0.010 7.224 289.324 o
-8 10 2 1340.330 1416.850 24.289 1.114 o
-8 10 3 1552.900 1618.580 26.160 0.851 o
-8 10 4 1393.520 1377.370 24.900 1.079 o
-8 10 5 691.986 754.108 18.917 3.657 o
-8 10 6 199.443 210.380 10.724 28.793 o
-8 10 7 57.203 61.814 6.807 137.142 o
-8 10 8 53.048 53.776 6.487 153.974 o
-8 10 9 56.079 44.254 6.623 153.743 o
-8 10 10 83.544 59.719 7.941 98.505 o
-8 11 1 14.366 29.137 4.703 396.519 o
-8 11 2 851.005 872.936 19.790 2.632 o
-8 11 3 260.097 253.567 11.480 20.328 o
-8 11 4 308.065 311.968 12.809 15.113 o
-8 11 5 75.947 65.721 6.720 115.720 o
-8 11 6 1.029 1.299 9.076 183.808 o
-8 11 7 40.964 20.992 10.521 106.718 o
-8 11 8 41.846 30.466 11.451 90.897 o
-8 11 9 15.835 6.778 12.091 97.653 o
-8 12 1 226.142 201.838 10.200 26.735 o
-8 12 2 118.775 97.719 7.844 68.244 o
-8 12 3 137.973 135.641 8.707 51.303 o
-8 12 4 118.535 99.513 7.961 67.403 o
-8 12 5 78.138 60.117 6.584 117.939 o
-8 12 6 19.495 14.030 9.861 136.374 o
-8 12 7 8.023 -2.734 11.025 121.726 o
-8 12 8 6.599 5.158 11.432 112.948 o
-8 12 9 78.710 62.842 8.465 95.498 o
-8 13 1 803.027 895.780 21.332 2.737 o
-8 13 2 1041.860 1186.760 24.386 1.677 o
-8 13 3 392.431 423.834 15.039 9.706 o
-8 13 4 224.880 242.232 12.101 23.155 o
-8 13 5 85.197 85.473 7.553 91.890 o
-8 13 6 51.903 46.600 6.089 170.105 o
-8 13 7 142.206 173.505 11.442 38.859 o
-8 13 8 109.012 92.541 9.231 66.419 o
-8 14 1 197.217 202.827 11.092 29.086 o
-8 14 2 121.394 92.648 8.494 65.123 o
-8 14 3 20.331 15.931 9.803 136.368 o
-8 14 4 12.303 7.069 10.036 140.134 o
-8 14 5 25.055 23.387 10.802 110.488 o
-8 14 6 35.336 25.482 11.839 89.865 o
-8 14 7 24.924 15.155 12.256 90.468 o
-8 15 1 80.139 66.390 7.582 102.225 o
-8 15 2 48.371 31.183 10.491 100.001 o
-8 15 3 14.179 8.824 10.181 134.526 o
-8 15 4 20.488 11.490 10.763 117.131 o
-8 15 5 16.185 8.833 11.267 110.675 o
-8 15 6 9.088 6.041 11.723 106.397 o
-8 16 1 177.121 202.545 11.703 30.825 o
-8 16 2 117.137 121.494 9.599 56.657 o
-8 16 3 49.552 46.668 6.555 163.260 o
-8 16 4 74.481 78.356 8.145 96.293 o
-8 16 5 75.993 82.796 8.184 93.389 o
-8 17 1 2.940 4.509 10.966 124.459 o
-8 17 2 4.133 3.917 11.160 119.822 o
-8 17 3 10.222 7.486 11.713 105.798 o
-8 17 4 30.067 18.326 12.634 83.515 o
-8 18 1 2.556 0.611 11.703 110.501 o
-8 18 2 3.823 3.336 11.800 107.686 o
-8 18 3 0.893 -0.378 12.421 98.834 o
-7 -14 2 4.640 2.793 12.120 101.985 o
-7 -14 3 26.210 13.740 12.353 89.005 o
-7 -14 4 48.627 33.520 6.273 183.302 o
-7 -14 5 27.834 16.038 12.838 82.250 o
-7 -14 6 34.554 32.793 13.022 75.780 o
-7 -14 7 5.500 9.396 12.566 93.719 o
-7 -13 1 7.701 11.073 11.694 106.434 o
-7 -13 2 2.859 2.531 11.354 116.753 o
-7 -13 3 26.358 15.485 11.548 99.775 o
-7 -13 4 60.680 40.501 6.235 157.564 o
-7 -13 5 106.095 70.298 8.106 79.693 o
-7 -13 6 17.946 14.796 11.277 108.210 o
-7 -13 7 17.889 11.655 12.004 97.259 o
-7 -13 8 13.889 9.803 12.091 97.814 o
-7 -13 9 0.019 -2.511 12.654 95.495 o
-7 -12 1 25.115 22.796 11.451 100.145 o
-7 -12 2 146.038 131.530 10.065 45.821 o
-7 -12 3 229.316 233.583 12.576 22.742 o
-7 -12 4 337.539 348.523 15.223 12.358 o
-7 -12 5 143.297 153.754 10.530 42.735 o
-7 -12 6 25.121 22.078 10.937 108.495 o
-7 -12 7 14.363 20.023 11.325 107.839 o
-7 -12 8 34.331 27.120 12.072 87.089 o
-7 -12 9 69.162 70.880 8.096 103.386 o
-7 -12 10 49.925 38.581 13.710 64.961 o
-7 -11 1 34.642 18.064 10.676 108.712 o
-7 -11 2 94.993 76.591 8.067 84.446 o
-7 -11 3 48.259 39.794 6.147 181.463 o
-7 -11 4 49.594 53.824 6.700 154.600 o
-7 -11 5 5.835 5.304 9.919 148.869 o
-7 -11 6 2.229 5.701 9.851 153.544 o
-7 -11 7 3.351 4.228 10.200 143.195 o
-7 -11 8 40.448 25.521 5.420 241.332 o
-7 -11 9 29.951 27.935 12.062 88.713 o
-7 -11 10 1.792 2.143 11.926 106.446 o
-7 -10 1 39.751 29.535 5.207 246.086 o
-7 -10 2 169.054 161.821 10.123 37.817 o
-7 -10 3 253.813 238.140 11.771 21.196 o
-7 -10 4 75.389 56.326 6.526 123.520 o
-7 -10 5 16.877 11.287 9.299 154.689 o
-7 -10 6 54.543 50.227 6.080 162.797 o
-7 -10 7 27.773 27.324 5.032 303.534 o
-7 -10 8 22.684 11.102 10.472 121.690 o
-7 -10 9 43.868 25.462 11.442 91.229 o
-7 -10 10 18.826 11.907 11.403 106.326 o
-7 -10 11 10.283 3.452 12.227 98.184 o
-7 -9 1 478.071 500.560 16.309 7.101 o
-7 -9 2 734.585 788.811 20.139 3.296 o
-7 -9 3 668.118 758.074 19.587 3.764 o
-7 -9 4 136.283 159.727 9.328 46.776 o
-7 -9 5 68.381 75.437 6.826 117.095 o
-7 -9 6 176.104 195.816 10.394 33.386 o
-7 -9 7 165.679 192.287 10.666 34.837 o
-7 -9 8 218.668 217.914 11.694 25.234 o
-7 -9 9 123.053 124.607 9.502 54.707 o
-7 -9 10 35.896 24.948 11.684 91.711 o
-7 -9 11 18.131 11.219 12.023 96.963 o
-7 -8 1 284.602 303.222 12.615 16.605 o
-7 -8 2 175.710 178.140 10.113 35.283 o
-7 -8 3 5.831 5.430 8.087 219.231 o
-7 -8 4 7.114 4.984 7.660 240.425 o
-7 -8 5 2.891 -0.960 8.184 223.561 o
-7 -8 6 63.482 51.284 5.973 150.130 o
-7 -8 7 139.615 140.693 9.124 48.928 o
-7 -8 8 23.198 21.836 9.822 131.386 o
-7 -8 9 2.033 3.219 9.861 154.385 o
-7 -8 10 1.678 -1.930 10.617 134.663 o
-7 -8 11 2.614 2.056 11.287 118.363 o
-7 -8 12 1.487 -5.595 12.411 98.802 o
-7 -7 1 733.648 749.260 18.908 3.439 o
-7 -7 2 699.052 787.677 18.597 3.532 o
-7 -7 3 147.195 144.940 8.300 48.555 o
-7 -7 4 72.827 93.065 6.962 103.646 o
-7 -7 5 78.112 89.225 6.681 103.540 o
-7 -7 6 33.235 31.464 4.897 279.802 o
-7 -7 7 248.561 209.963 10.860 23.496 o
-7 -7 8 257.259 243.590 11.897 20.641 o
-7 -7 9 146.359 133.906 9.415 47.247 o
-7 -7 10 26.788 19.664 10.579 114.507 o
-7 -7 11 2.816 1.610 10.782 129.530 o
-7 -7 12 17.652 13.914 12.198 94.116 o
-7 -6 1 1348.380 1485.210 24.541 1.072 o
-7 -6 2 319.653 314.266 11.422 15.006 o
-7 -6 3 15.774 1.668 6.991 264.904 o
-7 -6 4 390.114 406.894 12.944 10.373 o
-7 -6 5 560.087 653.723 16.416 5.141 o
-7 -6 6 751.773 783.148 18.374 3.273 o
-7 -6 7 715.430 761.177 18.820 3.508 o
-7 -6 8 136.911 140.751 9.250 49.276 o
-7 -6 9 63.635 74.865 7.553 112.774 o
-7 -6 10 0.200 -0.262 9.551 167.454 o
-7 -6 11 8.502 13.439 10.569 127.690 o
-7 -6 12 26.543 19.267 12.159 90.391 o
-7 -5 1 74.625 52.505 5.488 140.994 o
-7 -5 2 180.643 139.743 7.854 41.937 o
-7 -5 3 12.285 5.003 6.593 298.220 o
-7 -5 4 219.418 208.887 9.376 27.891 o
-7 -5 5 329.009 332.989 11.674 14.073 o
-7 -5 6 145.716 153.802 8.552 47.139 o
-7 -5 7 1.002 -1.445 7.970 238.868 o
-7 -5 8 22.534 12.741 8.222 181.957 o
-7 -5 9 0.640 -4.198 8.804 196.479 o
-7 -5 10 2.147 -1.164 9.609 163.738 o
-7 -5 11 7.616 6.797 10.424 133.734 o
-7 -5 12 24.390 19.645 11.829 95.625 o
-7 -4 1 134.601 120.466 7.166 59.830 o
-7 -4 2 310.127 366.480 11.374 14.258 o
-7 -4 3 28.537 34.926 4.703 302.585 o
-7 -4 4 292.654 316.166 11.005 16.492 o
-7 -4 5 712.724 677.682 16.154 3.853 o
-7 -4 6 1140.580 1169.960 21.574 1.543 o
-7 -4 7 1057.610 1094.300 21.739 1.758 o
-7 -4 8 259.000 284.799 11.849 19.091 o
-7 -4 9 19.575 18.811 8.814 162.389 o
-7 -4 10 38.191 36.536 5.507 228.494 o
-7 -4 11 68.733 59.167 7.350 117.954 o
-7 -4 12 30.726 32.735 12.072 87.391 o
-7 -4 13 48.678 40.802 13.914 63.477 o
-7 -3 1 92.390 99.901 6.215 91.989 o
-7 -3 2 83.692 92.638 6.070 102.795 o
-7 -3 3 2001.810 2133.590 26.519 0.520 o
-7 -3 4 1675.730 1754.050 23.882 0.740 o
-7 -3 5 2141.700 2185.810 28.158 0.469 o
-7 -3 6 1070.040 1102.480 20.517 1.736 o
-7 -3 7 120.814 130.841 7.815 60.760 o
-7 -3 8 7.400 5.265 7.641 240.675 o
-7 -3 9 10.922 11.994 8.445 190.293 o
-7 -3 10 170.719 201.392 10.947 32.923 o
-7 -3 11 283.417 318.047 14.680 15.351 o
-7 -3 12 123.613 143.980 10.899 47.158 o
-7 -3 13 39.287 27.567 13.187 73.597 o
-7 -2 1 226.069 222.219 8.649 26.966 o
-7 -2 2 152.597 155.800 7.243 48.108 o
-7 -2 3 693.305 721.635 15.136 3.868 o
-7 -2 4 198.633 188.961 8.368 33.200 o
-7 -2 5 15.421 13.352 6.593 275.028 o
-7 -2 6 100.000 82.932 6.477 90.797 o
-7 -2 7 105.716 99.687 7.166 77.723 o
-7 -2 8 0.074 2.540 7.117 298.016 o
-7 -2 9 34.295 24.910 8.630 147.803 o
-7 -2 10 50.542 43.139 6.400 168.124 o
-7 -2 11 67.473 58.081 7.127 122.803 o
-7 -2 12 0.259 -0.039 11.306 119.510 o
-7 -2 13 1.784 2.017 12.198 101.828 o
-7 -1 1 33.302 29.758 4.053 328.853 o
-7 -1 2 85.940 81.371 5.604 109.877 o
-7 -1 3 1155.120 1199.050 18.850 1.513 o
-7 -1 4 2857.720 2980.520 29.816 0.265 o
-7 -1 5 2190.380 2320.350 27.460 0.439 o
-7 -1 6 1232.850 1363.650 21.749 1.274 o
-7 -1 7 88.695 101.035 7.001 88.621 o
-7 -1 8 46.770 49.121 5.440 193.844 o
-7 -1 9 286.022 315.255 12.789 16.133 o
-7 -1 10 137.368 149.836 9.696 46.725 o
-7 -1 11 110.113 106.989 9.202 63.344 o
-7 -1 12 99.273 83.310 8.824 75.099 o
-7 -1 13 15.057 9.551 12.634 89.749 o
-7 0 1 1648.250 1788.040 22.689 0.748 o
-7 0 2 3300.840 3389.070 30.631 0.202 o
-7 0 3 5026.760 5067.030 37.748 0.090 o
-7 0 4 2861.530 2852.120 29.322 0.273 o
-7 0 5 737.320 716.331 15.146 3.614 o
-7 0 6 286.131 296.279 10.550 17.633 o
-7 0 7 20.912 21.836 3.820 463.989 o
-7 0 8 457.209 494.190 14.593 7.688 o
-7 0 9 930.985 1040.760 22.641 2.092 o
-7 0 10 372.607 435.508 15.756 9.914 o
-7 0 11 212.915 238.683 12.702 23.830 o
-7 0 12 47.319 37.835 6.370 179.092 o
-7 0 13 9.548 7.243 12.489 93.893 o
-7 1 1 1466.110 1365.270 19.431 1.035 o
-7 1 2 196.264 190.745 7.495 34.477 o
-7 1 3 6.345 3.142 5.372 465.138 o
-7 1 4 424.699 453.621 11.703 9.100 o
-7 1 5 260.035 236.773 9.018 22.523 o
-7 1 6 48.154 39.503 4.625 226.045 o
-7 1 7 5.739 5.701 6.603 318.703 o
-7 1 8 297.581 314.324 11.946 15.909 o
-7 1 9 74.806 61.630 6.661 119.612 o
-7 1 10 33.840 23.106 10.133 117.052 o
-7 1 11 7.620 2.269 10.414 135.424 o
-7 1 12 5.927 3.733 11.461 113.009 o
-7 2 1 1738.860 1590.250 20.837 0.756 o
-7 2 2 3603.200 3661.860 31.629 0.172 o
-7 2 3 5510.360 5566.880 38.775 0.075 o
-7 2 4 2145.300 2165.290 25.268 0.473 o
-7 2 5 605.541 641.447 14.254 4.880 o
-7 2 6 4.909 7.757 6.332 343.053 o
-7 2 7 177.790 188.631 9.289 35.370 o
-7 2 8 339.405 375.963 13.177 12.395 o
-7 2 9 272.382 302.417 12.634 17.300 o
-7 2 10 310.110 369.253 14.661 13.152 o
-7 2 11 108.037 110.935 9.648 61.248 o
-7 2 12 27.942 28.924 11.975 90.397 o
-7 3 1 5391.370 5704.880 38.620 0.076 o
-7 3 2 3300.790 3059.190 28.555 0.216 o
-7 3 3 1147.530 1154.680 17.977 1.566 o
-7 3 4 90.960 76.416 5.478 108.539 o
-7 3 5 79.861 117.868 6.652 91.432 o
-7 3 6 535.843 583.987 14.418 5.901 o
-7 3 7 2042.200 2197.260 30.097 0.494 o
-7 3 8 1822.060 1964.700 29.826 0.612 o
-7 3 9 317.486 325.872 13.235 14.217 o
-7 3 10 228.846 235.503 12.188 23.029 o
-7 3 11 20.836 17.676 10.685 116.630 o
-7 3 12 11.351 10.685 11.684 105.155 o
-7 4 1 41.804 68.562 5.091 192.243 o
-7 4 2 394.045 379.832 10.375 11.105 o
-7 4 3 360.158 369.787 10.511 12.393 o
-7 4 4 84.946 92.260 5.876 103.488 o
-7 4 5 32.210 22.418 3.646 384.268 o
-7 4 6 429.602 422.690 12.857 9.189 o
-7 4 7 273.068 224.042 10.404 21.127 o
-7 4 8 0.804 1.571 7.970 237.793 o
-7 4 9 33.755 16.881 9.231 137.989 o
-7 4 10 12.671 6.409 9.910 143.410 o
-7 4 11 0.632 -0.417 10.734 132.366 o
-7 4 12 3.022 0.805 11.829 107.965 o
-7 5 1 3573.830 3486.930 31.261 0.179 o
-7 5 2 1606.500 1797.550 22.844 0.769 o
-7 5 3 831.936 789.916 15.136 2.954 o
-7 5 4 4.607 10.588 6.060 365.735 o
-7 5 5 1045.750 1081.750 19.189 1.817 o
-7 5 6 634.431 703.600 16.358 4.297 o
-7 5 7 699.862 757.996 17.987 3.630 o
-7 5 8 611.838 657.485 17.860 4.587 o
-7 5 9 186.070 198.735 10.705 31.297 o
-7 5 10 55.640 49.238 6.710 149.096 o
-7 5 11 20.213 13.798 11.374 105.725 o
-7 5 12 7.602 -0.659 12.944 89.206 o
-7 6 1 1496.370 1526.750 20.799 0.938 o
-7 6 2 169.092 162.936 7.466 42.621 o
-7 6 3 599.574 676.945 14.709 4.755 o
-7 6 4 275.298 301.021 10.239 18.299 o
-7 6 5 2025.900 2132.880 28.032 0.511 o
-7 6 6 1964.020 2020.700 28.090 0.550 o
-7 6 7 448.150 475.175 14.661 8.017 o
-7 6 8 301.573 302.562 12.566 15.756 o
-7 6 9 34.959 28.759 4.955 275.471 o
-7 6 10 50.075 36.031 5.895 188.379 o
-7 6 11 42.468 42.431 6.545 178.972 o
-7 7 1 266.830 256.282 9.221 21.014 o
-7 7 2 0.135 -1.813 5.837 447.921 o
-7 7 3 71.541 73.498 5.595 129.903 o
-7 7 4 115.736 103.120 6.690 73.940 o
-7 7 5 387.729 321.131 11.606 12.041 o
-7 7 6 43.728 27.838 5.207 236.452 o
-7 7 7 93.688 91.940 7.282 86.324 o
-7 7 8 5.350 -2.928 8.833 189.472 o
-7 7 9 0.239 -3.723 9.483 169.821 o
-7 7 10 9.482 6.535 10.734 125.476 o
-7 7 11 8.231 1.619 12.043 102.181 o
-7 8 1 761.247 848.802 16.552 3.112 o
-7 8 2 139.512 98.883 6.303 65.186 o
-7 8 3 1117.390 1179.760 20.314 1.581 o
-7 8 4 469.491 499.610 13.885 7.504 o
-7 8 5 843.537 912.245 19.305 2.597 o
-7 8 6 959.957 990.561 20.876 2.105 o
-7 8 7 306.655 349.134 13.187 14.200 o
-7 8 8 114.055 111.362 8.290 65.254 o
-7 8 9 20.975 22.001 10.356 121.651 o
-7 8 10 49.308 40.220 6.545 169.100 o
-7 8 11 51.347 36.836 6.438 171.140 o
-7 9 1 293.688 334.037 10.996 15.961 o
-7 9 2 185.082 196.757 8.940 34.002 o
-7 9 3 2437.700 2568.230 31.348 0.357 o
-7 9 4 1520.110 1522.430 24.755 0.912 o
-7 9 5 706.821 724.292 17.783 3.694 o
-7 9 6 237.266 238.848 11.141 22.995 o
-7 9 7 32.076 21.613 8.959 143.744 o
-7 9 8 59.130 60.359 6.429 141.992 o
-7 9 9 83.050 77.522 7.757 94.312 o
-7 9 10 91.361 87.470 9.338 74.423 o
-7 10 1 55.802 44.680 4.819 194.138 o
-7 10 2 166.385 164.051 8.591 41.030 o
-7 10 3 22.023 16.881 7.631 202.038 o
-7 10 4 0.021 3.966 7.524 265.479 o
-7 10 5 186.599 161.278 9.202 36.342 o
-7 10 6 63.549 45.873 5.866 156.078 o
-7 10 7 0.269 -4.392 9.241 178.805 o
-7 10 8 18.288 6.584 10.162 132.887 o
-7 10 9 23.064 23.349 11.636 98.198 o
-7 10 10 0.647 -1.658 12.363 99.843 o
-7 11 1 316.274 327.026 11.946 14.689 o
-7 11 2 1000.200 1041.280 20.692 1.947 o
-7 11 3 710.690 760.925 17.928 3.561 o
-7 11 4 465.395 482.108 15.126 7.590 o
-7 11 5 327.183 355.068 13.488 13.145 o
-7 11 6 43.578 41.791 5.362 212.291 o
-7 11 7 5.231 2.686 9.764 155.003 o
-7 11 8 60.061 46.232 6.409 150.786 o
-7 11 9 52.265 38.194 12.848 71.326 o
-7 12 1 928.812 1058.720 21.293 2.092 o
-7 12 2 735.627 781.859 18.908 3.343 o
-7 12 3 286.874 324.137 12.566 15.955 o
-7 12 4 101.036 94.471 7.796 77.923 o
-7 12 5 68.687 51.972 6.012 141.641 o
-7 12 6 38.099 38.727 5.217 236.634 o
-7 12 7 122.116 121.339 9.289 56.317 o
-7 12 8 192.928 222.995 13.138 25.996 o
-7 12 9 89.297 77.017 9.008 80.337 o
-7 13 1 33.756 31.726 5.469 250.340 o
-7 13 2 14.616 7.389 8.465 187.622 o
-7 13 3 120.952 105.243 7.757 66.068 o
-7 13 4 32.092 22.612 9.396 133.239 o
-7 13 5 5.581 2.104 9.260 171.638 o
-7 13 6 25.076 19.024 10.540 116.445 o
-7 13 7 34.921 24.726 12.023 87.905 o
-7 13 8 0.242 1.833 12.246 101.575 o
-7 14 1 416.395 469.115 15.786 8.542 o
-7 14 2 319.146 332.873 13.691 13.841 o
-7 14 3 212.259 216.392 11.219 26.447 o
-7 14 4 21.166 14.438 9.968 132.451 o
-7 14 5 25.033 17.056 10.569 116.522 o
-7 14 6 34.309 23.698 11.956 89.175 o
-7 14 7 68.795 47.056 7.185 126.341 o
-7 15 1 83.010 94.839 7.854 87.823 o
-7 15 2 25.591 14.273 9.910 130.511 o
-7 15 3 19.293 15.931 10.007 132.397 o
-7 15 4 56.734 56.287 6.913 139.292 o
-7 15 5 63.458 55.676 7.175 127.588 o
-7 15 6 135.789 146.152 10.966 43.981 o
-7 15 7 66.507 36.846 6.923 139.058 o
-7 16 1 31.755 22.718 10.424 113.329 o
-7 16 2 28.192 14.195 10.326 120.075 o
-7 16 3 1.738 3.229 10.424 138.623 o
-7 16 4 4.860 -1.862 11.190 119.809 o
-7 16 5 5.054 -3.946 12.431 97.368 o
-7 16 6 2.484 3.646 12.382 98.361 o
-7 17 1 96.660 98.980 8.649 73.717 o
-7 17 2 30.420 27.625 11.752 92.556 o
-7 17 3 17.939 12.208 11.762 100.824 o
-7 17 4 19.823 11.684 12.237 93.191 o
-7 18 1 2.229 -0.136 11.529 114.104 o
-7 18 2 10.138 7.311 11.703 106.036 o
-7 18 3 35.757 27.557 12.925 77.162 o
-7 19 1 0.277 -0.621 12.363 99.960 o
-6 -15 2 5.971 4.790 12.246 99.143 o
-6 -15 3 0.687 -2.085 12.101 104.186 o
-6 -15 4 11.840 -2.822 12.353 96.326 o
-6 -15 5 0.776 -2.327 12.508 97.499 o
-6 -15 6 0.301 -9.027 12.537 97.191 o
-6 -15 7 0.990 -8.921 12.848 92.370 o
-6 -14 1 39.850 31.212 5.798 220.336 o
-6 -14 2 3.588 5.488 11.257 117.702 o
-6 -14 3 15.288 7.466 11.364 109.685 o
-6 -14 4 43.302 28.371 11.858 85.880 o
-6 -14 5 147.705 125.179 10.191 45.824 o
-6 -14 6 98.948 93.928 9.173 70.647 o
-6 -14 7 56.208 53.155 7.350 134.165 o
-6 -14 8 32.527 31.270 12.731 79.583 o
-6 -14 9 7.281 4.654 12.343 97.220 o
-6 -13 1 12.650 3.006 11.015 118.747 o
-6 -13 2 89.256 82.709 8.058 86.110 o
-6 -13 3 140.641 143.292 10.288 45.096 o
-6 -13 4 217.177 248.176 13.012 22.770 o
-6 -13 5 108.193 138.521 10.259 54.160 o
-6 -13 6 25.152 21.506 11.073 106.374 o
-6 -13 7 0.236 4.160 10.656 133.322 o
-6 -13 8 0.061 -0.145 11.345 118.784 o
-6 -13 9 31.773 27.053 12.537 82.620 o
-6 -13 10 19.985 19.034 12.935 83.046 o
-6 -12 1 6.353 1.115 9.939 149.523 o
-6 -12 2 31.651 22.292 10.181 117.897 o
-6 -12 3 3.582 2.279 9.735 157.438 o
-6 -12 4 14.550 4.615 9.890 143.161 o
-6 -12 5 47.168 26.044 10.588 100.752 o
-6 -12 6 48.527 40.114 5.886 187.639 o
-6 -12 7 36.283 27.925 10.617 105.902 o
-6 -12 8 0.666 -3.791 10.918 127.930 o
-6 -12 9 16.537 11.306 11.548 105.062 o
-6 -12 10 2.643 -1.096 11.858 107.739 o
-6 -11 1 28.549 13.633 9.599 135.429 o
-6 -11 2 189.475 191.812 10.656 31.371 o
-6 -11 3 433.613 459.477 15.960 8.271 o
-6 -11 4 485.904 531.336 17.114 6.675 o
-6 -11 5 130.659 145.861 9.464 49.627 o
-6 -11 6 104.036 118.498 8.601 66.416 o
-6 -11 7 64.766 53.165 6.632 136.039 o
-6 -11 8 51.475 37.340 5.546 193.569 o
-6 -11 9 114.111 112.690 9.328 60.280 o
-6 -11 10 109.265 113.408 9.939 59.063 o
-6 -11 11 72.203 58.323 7.864 108.685 o
-6 -10 1 229.653 238.936 11.325 23.525 o
-6 -10 2 294.663 327.986 13.226 15.206 o
-6 -10 3 175.508 204.911 10.540 32.584 o
-6 -10 4 22.495 16.503 8.698 163.915 o
-6 -10 5 0.570 -4.392 8.465 212.580 o
-6 -10 6 5.368 2.269 8.513 201.859 o
-6 -10 7 100.815 94.810 7.670 78.734 o
-6 -10 8 102.285 118.188 8.921 65.592 o
-6 -10 9 96.566 121.737 9.250 65.468 o
-6 -10 10 23.491 17.482 11.500 101.349 o
-6 -10 11 7.615 4.538 11.985 102.828 o
-6 -9 1 2.380 -0.921 8.339 216.265 o
-6 -9 2 3.472 3.083 7.767 243.391 o
-6 -9 3 139.915 114.843 7.835 56.705 o
-6 -9 4 51.193 58.420 5.915 165.028 o
-6 -9 5 80.878 76.921 6.894 104.328 o
-6 -9 6 19.010 10.171 8.348 184.102 o
-6 -9 7 48.965 35.343 5.120 214.290 o
-6 -9 8 3.064 2.027 8.843 190.607 o
-6 -9 9 10.850 1.513 9.725 152.000 o
-6 -9 10 64.903 53.911 7.214 126.398 o
-6 -9 11 18.832 5.663 11.626 104.007 o
-6 -9 12 9.755 7.156 12.149 98.916 o
-6 -8 1 641.376 685.769 17.288 4.274 o
-6 -8 2 1498.980 1562.500 25.598 0.910 o
-6 -8 3 592.211 659.608 16.396 4.817 o
-6 -8 4 495.391 549.391 15.136 6.598 o
-6 -8 5 334.244 366.761 12.576 12.915 o
-6 -8 6 199.661 209.478 10.036 29.620 o
-6 -8 7 269.024 284.925 11.839 18.438 o
-6 -8 8 530.639 595.826 17.492 5.678 o
-6 -8 9 429.965 539.888 17.211 7.451 o
-6 -8 10 252.797 301.108 13.798 17.855 o
-6 -8 11 52.058 48.258 7.020 148.454 o
-6 -8 12 17.616 10.336 12.198 94.778 o
-6 -7 1 215.528 186.857 9.241 29.912 o
-6 -7 2 154.772 155.848 8.416 44.943 o
-6 -7 3 191.856 176.705 8.659 34.921 o
-6 -7 4 0.921 -2.036 6.836 324.114 o
-6 -7 5 166.512 149.361 8.145 43.502 o
-6 -7 6 317.895 382.867 12.867 13.152 o
-6 -7 7 559.292 604.592 16.668 5.380 o
-6 -7 8 143.127 188.922 10.084 40.228 o
-6 -7 9 65.273 51.613 6.273 142.242 o
-6 -7 10 1.897 2.414 9.444 168.543 o
-6 -7 11 3.625 1.939 10.268 141.942 o
-6 -7 12 0.624 1.920 11.451 115.923 o
-6 -6 1 405.220 405.130 12.411 10.080 o
-6 -6 2 751.823 821.565 17.104 3.209 o
-6 -6 3 53.708 44.457 5.013 194.496 o
-6 -6 4 25.317 31.435 4.606 332.595 o
-6 -6 5 110.082 115.085 7.136 71.638 o
-6 -6 6 0.380 1.978 6.807 325.332 o
-6 -6 7 142.198 115.531 7.767 56.033 o
-6 -6 8 230.254 225.690 10.724 24.593 o
-6 -6 9 157.131 158.999 9.793 41.044 o
-6 -6 10 21.633 12.760 9.522 143.560 o
-6 -6 11 6.348 5.798 10.152 141.856 o
-6 -6 12 1.510 -5.052 11.529 114.409 o
-6 -6 13 5.376 7.534 12.460 95.618 o
-6 -5 1 721.873 797.877 16.251 3.444 o
-6 -5 2 409.603 416.174 11.956 9.892 o
-6 -5 3 272.797 352.285 10.947 16.615 o
-6 -5 4 1230.570 1273.220 20.546 1.340 o
-6 -5 5 744.643 759.790 16.261 3.423 o
-6 -5 6 1588.480 1661.470 24.735 0.817 o
-6 -5 7 1546.290 1693.920 25.870 0.831 o
-6 -5 8 812.400 938.328 20.488 2.641 o
-6 -5 9 230.557 269.207 11.946 21.679 o
-6 -5 10 50.349 41.393 5.507 192.651 o
-6 -5 11 38.131 34.800 5.663 225.188 o
-6 -5 12 22.588 19.596 11.383 103.098 o
-6 -5 13 23.265 15.727 13.061 81.129 o
-6 -4 1 0.358 0.911 5.449 508.155 o
-6 -4 2 4.683 2.880 5.556 450.462 o
-6 -4 3 1356.120 1390.470 20.226 1.127 o
-6 -4 4 1447.650 1547.310 21.555 0.967 o
-6 -4 5 823.048 795.385 16.232 2.961 o
-6 -4 6 751.927 772.279 16.503 3.346 o
-6 -4 7 149.668 143.708 8.155 48.420 o
-6 -4 8 24.141 15.989 7.582 201.041 o
-6 -4 9 7.681 -0.145 8.087 220.685 o
-6 -4 10 11.525 5.527 8.940 174.875 o
-6 -4 11 69.659 69.445 7.524 110.225 o
-6 -4 12 73.727 82.302 8.591 91.203 o
-6 -4 13 14.467 10.966 12.498 91.544 o
-6 -3 1 343.644 371.435 10.317 13.031 o
-6 -3 2 183.559 218.612 7.990 33.692 o
-6 -3 3 3.461 2.463 5.178 524.596 o
-6 -3 4 242.615 215.092 8.310 25.769 o
-6 -3 5 757.171 732.379 15.136 3.457 o
-6 -3 6 899.965 913.040 17.550 2.432 o
-6 -3 7 606.907 624.042 15.466 4.891 o
-6 -3 8 102.512 94.810 6.768 83.339 o
-6 -3 9 1.053 -0.048 7.912 242.270 o
-6 -3 10 0.267 -0.659 8.678 202.692 o
-6 -3 11 5.995 -0.136 9.948 149.941 o
-6 -3 12 0.333 3.258 10.763 130.915 o
-6 -3 13 24.194 18.947 12.925 81.920 o
-6 -2 1 1067.810 1159.900 17.308 1.708 o
-6 -2 2 2189.010 2451.830 24.997 0.425 o
-6 -2 3 1487.780 1516.230 19.722 0.952 o
-6 -2 4 3326.170 3253.700 29.806 0.206 o
-6 -2 5 2079.190 2054.140 24.687 0.509 o
-6 -2 6 1787.560 1939.040 25.104 0.638 o
-6 -2 7 535.647 625.410 15.281 5.609 o
-6 -2 8 21.047 23.901 4.325 404.023 o
-6 -2 9 288.118 344.014 12.954 15.243 o
-6 -2 10 85.074 93.249 7.524 89.621 o
-6 -2 11 128.407 144.843 10.045 48.558 o
-6 -2 12 92.008 92.027 8.891 76.052 o
-6 -2 13 35.542 22.602 12.809 79.179 o
-6 -1 1 1245.260 1290.570 17.793 1.322 o
-6 -1 2 3152.210 3086.700 27.324 0.229 o
-6 -1 3 1152.050 1081.530 16.358 1.631 o
-6 -1 4 852.104 759.722 14.234 2.947 o
-6 -1 5 319.488 260.810 8.921 17.317 o
-6 -1 6 127.309 121.979 6.768 63.812 o
-6 -1 7 49.463 38.775 4.877 215.749 o
-6 -1 8 124.185 129.610 7.515 60.828 o
-6 -1 9 219.826 243.822 10.850 24.618 o
-6 -1 10 129.684 123.831 9.047 54.438 o
-6 -1 11 29.299 19.800 10.346 117.187 o
-6 -1 12 12.947 10.424 11.248 112.214 o
-6 -1 13 0.806 1.067 12.023 105.299 o
-6 0 1 34.652 36.148 3.733 321.673 o
-6 0 2 419.969 407.408 9.822 10.036 o
-6 0 3 1664.400 1717.420 20.197 0.763 o
-6 0 4 2885.020 2976.770 27.227 0.263 o
-6 0 5 521.057 511.566 12.004 6.748 o
-6 0 6 310.893 364.745 10.899 14.405 o
-6 0 7 56.449 51.982 5.032 180.011 o
-6 0 8 8.436 1.028 6.884 294.259 o
-6 0 9 82.676 89.555 7.466 92.950 o
-6 0 10 0.648 4.160 8.465 209.474 o
-6 0 11 83.920 74.603 7.796 94.368 o
-6 0 12 34.999 22.350 11.936 89.411 o
-6 0 13 4.153 5.740 12.314 98.533 o
-6 1 1 4216.300 4239.110 30.902 0.127 o
-6 1 2 4655.860 4354.550 31.251 0.110 o
-6 1 3 4374.540 4379.360 31.765 0.119 o
-6 1 4 2445.090 2432.470 24.803 0.372 o
-6 1 5 1280.020 1392.640 19.596 1.210 o
-6 1 6 450.582 502.519 12.624 7.947 o
-6 1 7 389.541 478.870 13.158 9.427 o
-6 1 8 423.007 463.113 14.166 8.703 o
-6 1 9 383.905 454.406 14.796 9.586 o
-6 1 10 167.208 173.234 10.171 37.040 o
-6 1 11 204.795 237.578 12.246 25.082 o
-6 1 12 32.698 25.094 11.975 89.290 o
-6 1 13 16.494 14.215 12.576 89.312 o
-6 2 1 992.582 804.335 13.420 2.359 o
-6 2 2 167.797 172.390 6.671 43.171 o
-6 2 3 168.459 121.165 5.895 51.398 o
-6 2 4 3.574 3.355 4.586 646.284 o
-6 2 5 128.890 134.691 6.690 60.858 o
-6 2 6 24.461 31.901 4.373 352.029 o
-6 2 7 231.816 237.093 9.677 24.723 o
-6 2 8 378.925 433.530 13.691 10.178 o
-6 2 9 29.415 25.860 5.042 299.025 o
-6 2 10 23.182 11.994 9.357 146.804 o
-6 2 11 5.227 2.851 9.958 149.158 o
-6 2 12 0.039 -0.330 11.160 122.747 o
-6 3 1 3520.360 3260.130 26.898 0.191 o
-6 3 2 2684.460 2894.800 25.579 0.294 o
-6 3 3 1490.670 1503.040 19.092 0.956 o
-6 3 4 273.839 324.748 9.628 17.896 o
-6 3 5 1.965 4.635 5.391 490.202 o
-6 3 6 5.372 1.387 6.031 387.896 o
-6 3 7 28.858 26.461 4.421 339.227 o
-6 3 8 104.511 117.674 7.864 70.081 o
-6 3 9 322.628 347.728 13.585 13.436 o
-6 3 10 128.917 140.295 9.114 51.980 o
-6 3 11 41.401 31.309 11.102 95.371 o
-6 3 12 1.387 0.524 11.393 117.074 o
-6 4 1 4175.020 4291.770 31.309 0.128 o
-6 4 2 3251.680 3049.250 26.771 0.222 o
-6 4 3 545.481 624.721 12.518 5.662 o
-6 4 4 952.689 949.313 15.960 2.236 o
-6 4 5 976.853 1126.660 18.471 1.924 o
-6 4 6 1415.020 1491.280 22.592 1.015 o
-6 4 7 1561.180 1725.560 25.695 0.812 o
-6 4 8 572.464 629.928 16.765 5.116 o
-6 4 9 387.968 405.944 14.632 10.123 o
-6 4 10 85.716 81.866 7.951 89.421 o
-6 4 11 30.401 28.497 11.393 97.263 o
-6 4 12 6.972 6.012 12.072 101.363 o
-6 5 1 1.168 5.537 4.635 652.494 o
-6 5 2 103.006 96.585 5.488 90.125 o
-6 5 3 652.470 641.670 12.935 4.526 o
-6 5 4 370.525 408.310 10.986 11.290 o
-6 5 5 315.012 340.892 10.627 14.848 o
-6 5 6 285.055 290.326 10.627 17.848 o
-6 5 7 15.003 10.928 7.330 235.725 o
-6 5 8 23.531 14.845 8.348 174.807 o
-6 5 9 4.139 -0.145 8.513 205.159 o
-6 5 10 0.351 -0.359 9.570 166.643 o
-6 5 11 14.628 8.862 11.063 115.239 o
-6 5 12 13.937 10.889 12.111 97.303 o
-6 6 1 1096.220 1120.840 16.813 1.695 o
-6 6 2 411.933 435.285 10.879 9.741 o
-6 6 3 34.485 31.794 4.024 318.848 o
-6 6 4 348.568 337.750 10.210 13.539 o
-6 6 5 362.087 341.774 11.005 12.732 o
-6 6 6 387.427 432.114 12.954 10.103 o
-6 6 7 558.599 553.269 15.446 5.747 o
-6 6 8 277.453 264.708 11.684 18.628 o
-6 6 9 58.956 53.000 5.798 159.004 o
-6 6 10 1.233 -3.869 10.142 147.785 o
-6 6 11 0.512 -5.149 11.393 117.577 o
-6 7 1 1892.660 2002.640 23.203 0.584 o
-6 7 2 581.293 647.672 13.391 5.119 o
-6 7 3 1451.370 1621.300 21.797 0.934 o
-6 7 4 1314.500 1399.810 21.148 1.162 o
-6 7 5 1214.480 1293.570 21.351 1.344 o
-6 7 6 819.198 900.822 18.976 2.713 o
-6 7 7 461.837 474.545 14.661 7.773 o
-6 7 8 220.437 214.268 10.685 26.215 o
-6 7 9 48.920 45.097 5.779 184.640 o
-6 7 10 48.833 38.775 6.002 185.222 o
-6 7 11 20.729 16.968 12.014 95.000 o
-6 8 1 4.878 4.266 5.488 454.274 o
-6 8 2 687.645 658.406 14.302 4.147 o
-6 8 3 163.290 201.411 8.562 37.959 o
-6 8 4 299.750 295.523 10.453 16.890 o
-6 8 5 133.512 104.506 6.981 64.089 o
-6 8 6 11.690 1.513 7.515 242.905 o
-6 8 7 12.462 4.072 8.116 208.035 o
-6 8 8 4.716 -0.582 8.950 185.466 o
-6 8 9 22.973 15.562 10.162 126.473 o
-6 8 10 19.434 13.284 11.383 106.048 o
-6 8 11 15.645 9.745 12.149 96.308 o
-6 9 1 303.139 320.733 10.404 16.024 o
-6 9 2 34.828 25.230 4.053 332.879 o
-6 9 3 729.455 713.461 15.795 3.651 o
-6 9 4 554.386 545.047 14.438 5.911 o
-6 9 5 548.571 519.681 14.913 6.106 o
-6 9 6 880.747 910.645 20.091 2.461 o
-6 9 7 84.150 69.183 6.710 106.662 o
-6 9 8 36.489 20.168 9.842 121.638 o
-6 9 9 6.031 2.027 10.453 135.541 o
-6 9 10 5.841 1.396 11.461 113.564 o
-6 10 1 246.572 268.131 9.822 21.844 o
-6 10 2 1543.210 1671.230 24.415 0.844 o
-6 10 3 1195.970 1223.730 21.564 1.417 o
-6 10 4 683.194 738.681 17.240 3.812 o
-6 10 5 515.182 524.520 15.330 6.480 o
-6 10 6 221.625 201.004 10.307 27.185 o
-6 10 7 62.258 50.731 5.760 156.261 o
-6 10 8 43.886 36.167 5.411 217.136 o
-6 10 9 46.537 31.639 12.014 82.297 o
-6 10 10 44.652 37.050 12.867 73.611 o
-6 11 1 161.896 166.698 8.426 42.029 o
-6 11 2 375.417 387.715 12.615 11.143 o
-6 11 3 6.824 1.484 7.301 267.598 o
-6 11 4 29.982 12.557 7.835 184.761 o
-6 11 5 9.119 3.626 8.106 214.300 o
-6 11 6 3.316 0.882 8.504 206.151 o
-6 11 7 22.159 14.050 9.677 138.691 o
-6 11 8 41.730 20.246 10.908 100.663 o
-6 11 9 9.078 3.626 11.665 107.922 o
-6 12 1 641.629 671.990 16.581 4.353 o
-6 12 2 436.412 424.338 13.526 8.922 o
-6 12 3 433.071 433.695 14.021 8.823 o
-6 12 4 393.073 406.778 14.438 10.017 o
-6 12 5 110.217 109.403 8.164 67.882 o
-6 12 6 49.426 38.329 5.411 200.851 o
-6 12 7 5.698 6.351 10.249 139.554 o
-6 12 8 25.798 10.831 11.393 103.491 o
-6 12 9 19.103 16.503 12.508 88.964 o
-6 13 1 475.509 540.082 15.776 6.895 o
-6 13 2 382.354 418.540 14.001 10.228 o
-6 13 3 252.383 292.760 12.149 19.096 o
-6 13 4 262.669 268.664 12.159 19.207 o
-6 13 5 112.798 106.911 8.319 66.557 o
-6 13 6 56.512 43.498 6.041 165.950 o
-6 13 7 82.491 62.648 7.359 104.164 o
-6 13 8 72.568 67.554 8.106 101.962 o
-6 14 1 7.362 -4.237 8.601 196.806 o
-6 14 2 1.500 1.784 8.542 206.221 o
-6 14 3 10.128 7.563 8.891 177.060 o
-6 14 4 14.365 6.021 9.308 159.376 o
-6 14 5 6.387 5.188 9.735 153.899 o
-6 14 6 11.826 3.384 10.947 120.477 o
-6 14 7 18.841 9.638 12.014 97.137 o
-6 15 1 243.017 249.165 12.023 21.430 o
-6 15 2 207.142 214.549 11.316 26.999 o
-6 15 3 60.416 44.729 6.060 158.171 o
-6 15 4 28.326 22.631 10.724 110.192 o
-6 15 5 30.407 26.073 11.451 96.993 o
-6 15 6 18.936 17.705 11.810 98.536 o
-6 15 7 35.853 27.741 13.226 74.166 o
-6 16 1 96.484 105.961 8.445 73.378 o
-6 16 2 152.386 169.801 10.385 39.645 o
-6 16 3 64.249 65.993 7.049 123.134 o
-6 16 4 86.426 84.998 8.513 83.537 o
-6 16 5 48.785 33.404 5.973 191.557 o
-6 16 6 40.781 24.473 13.323 72.358 o
-6 17 1 20.484 12.295 10.608 119.944 o
-6 17 2 0.131 -0.553 10.705 133.367 o
-6 17 3 0.348 -2.482 11.374 118.050 o
-6 17 4 1.827 -0.398 11.674 111.464 o
-6 17 5 7.624 4.645 12.392 96.373 o
-6 18 1 49.090 35.867 5.954 188.948 o
-6 18 2 7.724 2.463 11.858 105.312 o
-6 18 3 12.577 11.248 12.159 97.009 o
-6 19 1 8.371 6.303 12.305 97.165 o
-6 19 2 32.807 25.637 13.158 75.974 o
-5 -16 2 44.978 31.678 13.439 69.257 o
-5 -16 3 19.195 12.566 12.130 94.760 o
-5 -16 4 5.552 -0.708 12.072 102.963 o
-5 -16 5 13.483 10.870 12.072 98.060 o
-5 -16 6 25.489 14.651 12.838 83.179 o
-5 -16 7 30.166 15.524 13.361 76.046 o
-5 -15 1 60.844 52.321 7.359 129.331 o
-5 -15 2 29.185 22.602 11.956 91.398 o
-5 -15 3 10.764 9.415 11.451 109.751 o
-5 -15 4 9.949 9.008 11.190 115.130 o
-5 -15 5 28.150 21.012 11.771 94.609 o
-5 -15 6 43.819 39.755 6.690 175.007 o
-5 -15 7 54.037 52.117 7.311 137.965 o
-5 -15 8 32.521 24.638 12.954 78.270 o
-5 -14 1 1.242 -3.064 11.025 125.183 o
-5 -14 2 1.899 2.996 10.297 141.956 o
-5 -14 3 0.017 -0.824 10.394 141.516 o
-5 -14 4 5.940 5.294 10.462 134.326 o
-5 -14 5 0.077 -3.142 10.695 133.640 o
-5 -14 6 4.093 -0.184 10.773 129.497 o
-5 -14 7 0.002 -7.602 11.403 117.601 o
-5 -14 8 14.098 4.809 11.558 107.401 o
-5 -14 9 2.737 4.615 11.723 109.267 o
-5 -13 1 27.867 16.668 10.317 119.670 o
-5 -13 2 40.760 24.347 10.404 107.676 o
-5 -13 3 71.921 69.493 7.078 113.505 o
-5 -13 4 155.902 161.782 10.142 40.260 o
-5 -13 5 222.966 269.537 13.051 21.421 o
-5 -13 6 172.998 185.732 11.112 33.476 o
-5 -13 7 166.033 187.594 11.131 34.354 o
-5 -13 8 68.263 45.563 6.584 137.196 o
-5 -13 9 0.314 -1.251 11.519 115.106 o
-5 -13 10 2.913 -0.417 12.295 100.203 o
-5 -12 1 83.023 76.668 7.330 98.552 o
-5 -12 2 113.928 131.743 8.959 58.604 o
-5 -12 3 156.287 192.481 10.433 36.785 o
-5 -12 4 259.699 287.853 12.634 18.503 o
-5 -12 5 170.999 172.875 10.152 36.449 o
-5 -12 6 152.970 139.306 9.173 45.592 o
-5 -12 7 61.223 59.845 6.584 137.069 o
-5 -12 8 42.300 40.239 5.789 203.782 o
-5 -12 9 26.835 30.601 11.345 99.124 o
-5 -12 10 44.493 48.026 6.875 162.596 o
-5 -12 11 42.097 37.263 6.458 186.914 o
-5 -11 1 0.575 -2.463 8.504 210.646 o
-5 -11 2 1.308 0.553 8.174 226.237 o
-5 -11 3 38.323 26.345 8.969 135.227 o
-5 -11 4 24.430 15.349 8.601 165.282 o
-5 -11 5 27.787 18.239 8.833 153.128 o
-5 -11 6 19.071 6.632 8.843 168.961 o
-5 -11 7 0.744 3.161 8.882 191.070 o
-5 -11 8 18.344 17.444 9.822 136.873 o
-5 -11 9 8.400 8.348 10.346 134.615 o
-5 -11 10 3.148 -1.988 11.073 123.147 o
-5 -11 11 0.002 5.575 11.432 115.786 o
-5 -10 1 441.229 485.260 15.078 8.000 o
-5 -10 2 561.436 641.651 17.356 5.131 o
-5 -10 3 884.324 1056.610 21.264 2.214 o
-5 -10 4 342.823 342.821 12.421 13.088 o
-5 -10 5 223.124 246.334 10.957 24.091 o
-5 -10 6 210.058 167.765 9.434 31.766 o
-5 -10 7 9.986 6.497 8.678 185.948 o
-5 -10 8 29.408 14.961 9.260 142.157 o
-5 -10 9 37.188 32.415 5.158 251.749 o
-5 -10 10 63.054 59.613 6.981 128.829 o
-5 -10 11 49.316 31.329 12.392 77.513 o
-5 -10 12 33.789 23.077 12.964 78.024 o
-5 -9 1 256.471 267.666 10.986 20.376 o
-5 -9 2 648.499 705.026 16.998 4.164 o
-5 -9 3 327.190 306.451 11.267 14.885 o
-5 -9 4 514.928 536.233 14.826 6.445 o
-5 -9 5 664.614 696.473 16.872 4.086 o
-5 -9 6 413.056 483.320 14.845 8.603 o
-5 -9 7 210.955 260.161 11.306 24.291 o
-5 -9 8 126.773 155.528 9.241 50.048 o
-5 -9 9 197.211 219.495 11.383 27.758 o
-5 -9 10 111.675 124.112 9.250 59.481 o
-5 -9 11 82.492 88.886 8.513 84.664 o
-5 -9 12 16.481 11.500 12.004 97.831 o
-5 -8 1 133.730 115.987 7.408 60.172 o
-5 -8 2 1.000 0.427 6.729 333.324 o
-5 -8 3 117.415 111.953 7.039 69.329 o
-5 -8 4 1.413 0.252 6.729 332.159 o
-5 -8 5 5.496 -0.514 6.787 313.211 o
-5 -8 6 2.249 2.250 7.039 298.520 o
-5 -8 7 2.709 4.247 7.456 263.599 o
-5 -8 8 0.260 -0.737 8.164 228.972 o
-5 -8 9 0.577 -7.389 9.153 181.900 o
-5 -8 10 9.005 4.548 9.638 154.880 o
-5 -8 11 0.975 -1.881 10.598 135.567 o
-5 -8 12 6.689 3.142 11.364 114.675 o
-5 -7 1 1393.520 1542.270 23.145 1.010 o
-5 -7 2 2318.260 2380.840 28.284 0.401 o
-5 -7 3 678.968 753.497 15.902 3.834 o
-5 -7 4 617.639 589.688 14.205 5.010 o
-5 -7 5 218.990 204.029 9.260 28.351 o
-5 -7 6 13.951 14.409 6.875 260.003 o
-5 -7 7 268.851 301.690 11.568 18.060 o
-5 -7 8 271.287 281.376 11.374 18.650 o
-5 -7 9 348.539 388.122 14.079 11.649 o
-5 -7 10 173.196 159.988 9.890 37.668 o
-5 -7 11 63.635 46.057 6.312 147.628 o
-5 -7 12 12.314 5.895 11.306 112.522 o
-5 -7 13 3.212 -0.495 12.324 99.638 o
-5 -6 1 902.180 912.293 16.842 2.436 o
-5 -6 2 672.161 715.420 14.738 4.041 o
-5 -6 3 699.888 742.230 14.913 3.767 o
-5 -6 4 1103.870 1168.220 18.956 1.624 o
-5 -6 5 745.172 863.511 16.862 3.146 o
-5 -6 6 400.724 464.345 13.090 9.344 o
-5 -6 7 736.199 785.902 17.550 3.366 o
-5 -6 8 338.896 373.268 12.886 12.539 o
-5 -6 9 310.169 309.156 12.624 15.150 o
-5 -6 10 54.620 45.795 6.031 167.425 o
-5 -6 11 28.006 23.155 10.404 115.872 o
-5 -6 12 1.179 -1.076 10.986 126.096 o
-5 -6 13 8.630 3.811 12.343 96.910 o
-5 -5 1 56.271 64.325 5.052 168.019 o
-5 -5 2 34.183 25.899 3.646 359.236 o
-5 -5 3 339.622 338.584 10.026 13.949 o
-5 -5 4 304.173 324.757 9.929 16.024 o
-5 -5 5 0.098 -1.193 5.585 489.463 o
-5 -5 6 1.612 4.518 6.118 388.550 o
-5 -5 7 5.771 1.823 6.797 308.480 o
-5 -5 8 52.644 49.053 5.789 173.482 o
-5 -5 9 0.551 -0.902 8.038 235.680 o
-5 -5 10 17.182 7.612 8.727 174.550 o
-5 -5 11 4.654 3.510 9.561 161.589 o
-5 -5 12 6.411 3.655 10.724 128.285 o
-5 -5 13 0.003 1.251 11.965 106.579 o
-5 -4 1 1206.560 1284.720 17.967 1.377 o
-5 -4 2 570.743 544.804 11.732 5.876 o
-5 -4 3 804.094 849.898 14.554 2.954 o
-5 -4 4 478.188 418.142 10.802 8.421 o
-5 -4 5 1404.810 1457.980 20.488 1.046 o
-5 -4 6 1210.630 1235.740 19.606 1.398 o
-5 -4 7 1372.850 1449.570 22.728 1.072 o
-5 -4 8 808.093 820.014 18.113 2.935 o
-5 -4 9 258.492 262.342 11.325 20.219 o
-5 -4 10 102.519 101.956 7.612 76.269 o
-5 -4 11 26.817 18.888 10.220 121.524 o
-5 -4 12 7.586 7.098 10.714 126.840 o
-5 -4 13 35.549 35.740 12.954 75.713 o
-5 -3 1 2197.140 2291.550 23.096 0.444 o
-5 -3 2 2516.620 2677.420 24.793 0.336 o
-5 -3 3 2731.750 2741.860 25.046 0.298 o
-5 -3 4 981.316 1010.130 15.815 2.078 o
-5 -3 5 712.948 622.336 13.168 4.129 o
-5 -3 6 947.124 959.679 17.104 2.225 o
-5 -3 7 934.779 970.316 18.374 2.230 o
-5 -3 8 89.641 88.643 6.584 95.457 o
-5 -3 9 231.502 260.539 11.102 22.582 o
-5 -3 10 12.877 14.893 8.765 174.000 o
-5 -3 11 52.994 56.258 6.506 151.864 o
-5 -3 12 43.924 43.275 6.341 181.118 o
-5 -3 13 22.705 13.924 12.382 89.818 o
-5 -2 1 178.588 135.699 5.876 46.389 o
-5 -2 2 30.967 31.881 3.607 363.086 o
-5 -2 3 1.340 1.871 4.082 859.917 o
-5 -2 4 701.243 821.361 13.934 3.549 o
-5 -2 5 46.458 29.419 3.394 294.116 o
-5 -2 6 92.950 109.626 6.254 87.936 o
-5 -2 7 2.021 2.851 5.944 412.892 o
-5 -2 8 18.994 12.828 6.729 257.137 o
-5 -2 9 3.198 4.557 7.369 268.046 o
-5 -2 10 0.476 -1.774 8.271 222.774 o
-5 -2 11 1.240 2.637 9.338 172.881 o
-5 -2 12 6.851 4.897 10.734 127.455 o
-5 -2 13 4.268 3.559 11.820 107.122 o
-5 -1 1 545.886 500.657 10.171 6.583 o
-5 -1 2 535.118 379.851 8.833 7.843 o
-5 -1 3 965.791 816.184 13.197 2.428 o
-5 -1 4 3366.060 3334.460 27.237 0.200 o
-5 -1 5 1726.290 1814.740 21.603 0.701 o
-5 -1 6 1907.230 1930.310 24.270 0.592 o
-5 -1 7 1093.400 1195.940 20.071 1.610 o
-5 -1 8 169.608 189.543 9.037 37.117 o
-5 -1 9 401.853 457.111 14.535 9.177 o
-5 -1 10 44.939 44.399 5.721 195.261 o
-5 -1 11 127.581 132.315 9.173 53.352 o
-5 -1 12 106.964 105.699 9.473 63.428 o
-5 -1 13 25.623 18.762 12.498 86.524 o
-5 0 1 4389.160 4131.270 27.857 0.123 o
-5 0 2 472.228 393.232 8.862 9.013 o
-5 0 3 2865.530 2605.990 22.786 0.290 o
-5 0 4 1473.120 1459.640 18.336 0.990 o
-5 0 5 2577.460 2610.660 25.482 0.331 o
-5 0 6 1464.430 1557.420 21.138 0.951 o
-5 0 7 525.835 553.706 13.788 6.260 o
-5 0 8 410.377 457.955 13.313 9.160 o
-5 0 9 103.303 116.239 7.951 70.522 o
-5 0 10 96.558 84.930 7.321 86.448 o
-5 0 11 90.451 102.839 8.397 77.426 o
-5 0 12 49.304 33.346 5.915 192.202 o
-5 0 13 4.834 4.208 12.295 98.865 o
-5 1 1 90.177 135.263 5.352 86.308 o
-5 1 2 1511.850 1638.820 17.531 0.891 o
-5 1 3 259.147 264.379 7.486 22.205 o
-5 1 4 269.661 288.716 8.184 20.030 o
-5 1 5 18.950 18.559 3.403 554.571 o
-5 1 6 126.806 143.204 6.836 59.554 o
-5 1 7 57.253 55.889 5.401 167.184 o
-5 1 8 12.877 7.796 6.933 268.217 o
-5 1 9 35.092 25.375 4.373 312.778 o
-5 1 10 12.099 4.421 8.581 188.391 o
-5 1 11 4.925 6.186 9.696 155.887 o
-5 1 12 22.837 19.974 11.451 101.832 o
-5 1 13 6.831 8.901 12.382 96.077 o
-5 2 1 1006.620 898.767 12.702 2.185 o
-5 2 2 4047.230 3803.600 26.355 0.144 o
-5 2 3 3043.830 3021.130 24.357 0.244 o
-5 2 4 2722.830 2716.120 24.793 0.301 o
-5 2 5 2157.770 2320.880 24.512 0.449 o
-5 2 6 1123.740 1214.240 19.092 1.550 o
-5 2 7 183.230 199.210 8.785 34.314 o
-5 2 8 250.488 263.457 10.550 21.265 o
-5 2 9 140.177 155.586 8.862 47.546 o
-5 2 10 269.874 320.898 13.429 16.540 o
-5 2 11 146.347 167.639 10.608 40.527 o
-5 2 12 61.747 59.399 7.902 116.757 o
-5 3 1 1494.000 1240.920 15.213 1.078 o
-5 3 2 2571.830 2712.600 22.660 0.325 o
-5 3 3 3134.580 3105.820 25.346 0.230 o
-5 3 4 2431.220 2531.640 24.328 0.365 o
-5 3 5 1189.150 1260.930 18.287 1.417 o
-5 3 6 562.743 553.347 13.080 5.846 o
-5 3 7 353.545 399.874 12.295 11.714 o
-5 3 8 337.837 375.653 12.634 12.600 o
-5 3 9 271.361 305.481 12.178 17.494 o
-5 3 10 165.071 171.954 10.162 37.549 o
-5 3 11 43.263 29.554 6.070 204.638 o
-5 3 12 5.967 6.729 11.383 113.809 o
-5 4 1 54.670 55.337 3.995 202.579 o
-5 4 2 1080.050 1181.950 15.582 1.675 o
-5 4 3 44.923 48.666 4.102 237.927 o
-5 4 4 21.679 22.098 3.462 494.121 o
-5 4 5 45.008 42.693 4.325 240.417 o
-5 4 6 0.837 2.754 5.701 455.180 o
-5 4 7 175.621 172.914 8.785 37.957 o
-5 4 8 36.110 22.350 7.806 169.309 o
-5 4 9 131.544 121.329 8.378 56.591 o
-5 4 10 14.805 8.145 9.493 152.465 o
-5 4 11 67.605 58.837 7.398 118.542 o
-5 4 12 0.426 2.027 11.645 112.175 o
-5 5 1 2901.240 2792.370 23.940 0.273 o
-5 5 2 1630.180 1438.330 17.502 0.878 o
-5 5 3 1862.650 1794.950 20.585 0.643 o
-5 5 4 1842.180 1905.420 22.146 0.626 o
-5 5 5 767.891 816.261 15.572 3.178 o
-5 5 6 776.762 775.964 16.173 3.220 o
-5 5 7 400.930 425.288 13.090 9.818 o
-5 5 8 527.061 535.050 15.582 6.231 o
-5 5 9 232.568 251.230 11.771 22.381 o
-5 5 10 149.570 166.020 10.453 40.406 o
-5 5 11 51.050 57.237 7.670 132.045 o
-5 5 12 5.776 3.200 12.120 101.510 o
-5 6 1 4025.350 3795.040 28.866 0.145 o
-5 6 2 908.429 913.932 14.525 2.441 o
-5 6 3 3041.880 3098.840 28.032 0.239 o
-5 6 4 877.670 957.410 16.406 2.448 o
-5 6 5 50.872 62.938 5.149 177.732 o
-5 6 6 372.907 363.697 11.558 11.831 o
-5 6 7 74.449 86.306 6.332 111.534 o
-5 6 8 269.605 284.460 11.907 18.381 o
-5 6 9 84.490 74.458 7.088 100.539 o
-5 6 10 42.788 31.125 10.918 97.187 o
-5 6 11 8.704 2.948 11.122 118.605 o
-5 7 1 273.686 253.179 8.135 21.133 o
-5 7 2 0.266 2.327 4.693 672.929 o
-5 7 3 192.252 144.620 6.952 40.346 o
-5 7 4 163.675 159.038 7.389 44.512 o
-5 7 5 142.724 123.434 6.962 56.961 o
-5 7 6 52.948 51.633 5.284 181.927 o
-5 7 7 115.373 105.592 7.282 70.681 o
-5 7 8 10.123 8.610 8.416 194.961 o
-5 7 9 65.358 59.351 6.923 127.300 o
-5 7 10 4.638 5.372 10.365 137.577 o
-5 7 11 5.284 3.006 11.490 112.895 o
-5 8 1 2409.090 2382.180 25.298 0.384 o
-5 8 2 620.799 601.450 13.061 4.976 o
-5 8 3 963.065 1041.300 17.686 2.067 o
-5 8 4 449.869 463.191 12.615 8.344 o
-5 8 5 461.502 497.409 13.604 7.692 o
-5 8 6 651.830 641.224 16.348 4.402 o
-5 8 7 587.793 603.564 17.075 5.078 o
-5 8 8 262.774 288.144 12.605 18.317 o
-5 8 9 196.550 225.089 11.713 27.144 o
-5 8 10 37.182 26.122 11.829 89.112 o
-5 8 11 15.418 8.911 12.421 92.642 o
-5 9 1 405.975 400.088 10.918 10.366 o
-5 9 2 423.178 474.109 12.256 8.834 o
-5 9 3 135.066 145.483 7.524 54.177 o
-5 9 4 234.180 220.212 9.211 25.719 o
-5 9 5 201.919 204.223 9.425 30.368 o
-5 9 6 297.842 270.061 11.422 17.333 o
-5 9 7 91.502 81.255 7.117 92.564 o
-5 9 8 68.372 51.099 6.497 135.024 o
-5 9 9 17.037 11.936 10.656 121.129 o
-5 9 10 5.593 3.879 11.180 118.716 o
-5 10 1 30.704 91.746 5.954 170.800 o
-5 10 2 13.939 10.966 6.273 306.660 o
-5 10 3 114.043 101.152 6.632 75.638 o
-5 10 4 147.737 147.432 8.048 48.706 o
-5 10 5 239.091 219.572 10.123 24.521 o
-5 10 6 123.144 102.994 7.738 65.701 o
-5 10 7 95.598 79.209 7.408 88.242 o
-5 10 8 14.278 9.357 9.968 139.535 o
-5 10 9 11.516 8.765 10.802 122.217 o
-5 10 10 0.012 1.154 11.752 110.490 o
-5 11 1 326.964 377.098 11.781 13.213 o
-5 11 2 499.847 571.421 14.632 6.426 o
-5 11 3 917.446 998.541 20.178 2.217 o
-5 11 4 435.076 434.519 13.866 8.792 o
-5 11 5 765.929 762.272 19.111 3.235 o
-5 11 6 236.563 246.130 11.781 22.253 o
-5 11 7 151.516 163.819 10.259 40.670 o
-5 11 8 69.027 77.250 7.350 109.439 o
-5 11 9 24.619 14.089 12.023 93.919 o
-5 12 1 227.792 263.370 10.394 23.309 o
-5 12 2 133.281 130.706 7.796 56.389 o
-5 12 3 104.858 104.303 7.544 74.841 o
-5 12 4 86.133 83.611 7.001 96.554 o
-5 12 5 141.851 129.882 8.921 50.384 o
-5 12 6 29.245 25.821 9.948 122.775 o
-5 12 7 38.679 32.104 10.966 98.361 o
-5 12 8 29.500 13.672 11.451 100.226 o
-5 12 9 10.807 8.319 12.295 96.130 o
-5 13 1 98.021 82.670 6.690 90.758 o
-5 13 2 79.690 58.730 6.332 120.069 o
-5 13 3 312.166 315.410 12.489 14.959 o
-5 13 4 97.558 81.352 7.592 84.990 o
-5 13 5 135.072 139.200 9.405 49.513 o
-5 13 6 36.203 25.336 10.676 105.771 o
-5 13 7 0.359 -1.804 10.860 129.465 o
-5 13 8 8.223 5.614 11.926 103.361 o
-5 14 1 361.681 420.954 14.273 10.710 o
-5 14 2 510.594 590.949 17.298 5.952 o
-5 14 3 563.799 620.969 18.084 5.164 o
-5 14 4 224.870 208.295 11.316 25.460 o
-5 14 5 132.236 138.502 9.657 49.590 o
-5 14 6 48.303 39.066 6.070 184.146 o
-5 14 7 34.204 27.159 12.256 84.960 o
-5 15 1 111.423 112.845 8.639 64.389 o
-5 15 2 32.895 29.031 5.604 251.108 o
-5 15 3 45.541 37.990 5.469 208.787 o
-5 15 4 13.877 10.782 10.336 130.412 o
-5 15 5 25.689 23.562 11.248 102.807 o
-5 15 6 19.512 12.964 11.606 102.443 o
-5 15 7 20.980 12.469 12.644 87.276 o
-5 16 1 154.775 154.588 10.152 41.181 o
-5 16 2 136.561 134.439 9.880 48.312 o
-5 16 3 76.251 81.730 8.252 92.938 o
-5 16 4 40.339 35.537 11.975 84.326 o
-5 16 5 3.783 3.268 11.509 113.118 o
-5 16 6 0.316 4.121 12.043 104.593 o
-5 17 1 349.492 421.381 17.056 10.402 o
-5 17 2 143.159 143.330 10.559 43.801 o
-5 17 3 76.954 71.908 7.844 99.853 o
-5 17 4 27.212 25.298 12.266 87.694 o
-5 17 5 8.956 5.275 12.411 95.541 o
-5 18 1 0.643 1.474 11.296 119.203 o
-5 18 2 1.170 0.136 11.548 114.141 o
-5 18 3 4.348 3.413 11.878 106.095 o
-5 19 1 32.668 25.986 12.964 77.925 o
-5 19 2 9.964 8.174 12.557 92.644 o
-4 -17 2 90.099 73.992 8.765 82.583 o
-4 -17 3 73.281 59.428 8.029 105.408 o
-4 -17 4 26.541 20.236 12.867 81.676 o
-4 -17 5 34.478 33.569 13.294 73.104 o
-4 -17 6 27.511 38.213 13.449 72.901 o
-4 -16 1 24.108 20.023 12.392 88.151 o
-4 -16 2 28.914 24.056 12.295 86.950 o
-4 -16 3 12.524 12.974 11.597 105.641 o
-4 -16 4 9.040 3.394 11.636 108.506 o
-4 -16 5 19.269 15.756 11.732 99.979 o
-4 -16 6 10.584 8.038 11.762 104.711 o
-4 -16 7 22.146 15.097 12.402 89.556 o
-4 -16 8 16.709 14.127 12.731 87.257 o
-4 -15 1 77.876 63.288 7.660 104.406 o
-4 -15 2 21.977 6.797 10.928 114.473 o
-4 -15 3 35.179 23.775 11.112 100.139 o
-4 -15 4 3.293 3.626 10.200 143.443 o
-4 -15 5 21.364 13.643 10.821 114.922 o
-4 -15 6 10.179 6.603 10.899 121.512 o
-4 -15 7 7.757 2.201 11.005 121.709 o
-4 -15 8 24.084 12.654 11.965 95.222 o
-4 -15 9 6.089 5.061 12.014 102.816 o
-4 -14 1 140.744 139.588 9.813 46.827 o
-4 -14 2 56.651 45.446 6.642 151.675 o
-4 -14 3 67.591 80.208 7.563 106.968 o
-4 -14 4 82.991 100.104 8.348 82.484 o
-4 -14 5 165.891 190.289 11.054 34.301 o
-4 -14 6 192.344 221.666 11.985 27.481 o
-4 -14 7 163.756 184.879 11.335 34.556 o
-4 -14 8 102.043 105.699 9.619 64.522 o
-4 -14 9 21.471 19.334 11.888 96.041 o
-4 -14 10 6.126 6.584 12.120 100.782 o
-4 -13 1 48.262 37.767 5.401 204.539 o
-4 -13 2 43.575 45.243 5.760 196.200 o
-4 -13 3 101.554 111.662 8.319 70.419 o
-4 -13 4 109.236 91.349 7.602 75.592 o
-4 -13 5 86.547 75.864 7.456 95.121 o
-4 -13 6 89.321 82.089 7.612 89.798 o
-4 -13 7 5.579 6.642 10.094 143.674 o
-4 -13 8 0.234 -5.440 10.840 129.995 o
-4 -13 9 0.297 1.736 10.753 131.594 o
-4 -13 10 0.093 -0.572 11.587 113.854 o
-4 -13 11 5.829 5.372 12.266 98.788 o
-4 -12 1 64.925 52.282 5.847 149.449 o
-4 -12 2 12.770 16.038 8.378 187.594 o
-4 -12 3 31.282 23.446 8.959 143.623 o
-4 -12 4 77.200 74.312 6.603 111.729 o
-4 -12 5 89.276 78.259 7.069 95.632 o
-4 -12 6 126.024 88.857 7.738 67.502 o
-4 -12 7 87.937 64.432 6.613 106.389 o
-4 -12 8 7.005 3.966 9.502 161.153 o
-4 -12 9 0.137 0.126 9.977 153.453 o
-4 -12 10 0.359 2.860 10.724 131.953 o
-4 -12 11 0.032 2.841 11.558 113.861 o
-4 -11 1 222.398 249.155 10.879 24.091 o
-4 -11 2 126.412 168.366 8.959 49.227 o
-4 -11 3 694.672 766.005 18.336 3.626 o
-4 -11 4 665.166 728.306 18.103 3.930 o
-4 -11 5 562.066 556.382 16.144 5.643 o
-4 -11 6 341.420 358.888 13.226 12.616 o
-4 -11 7 75.844 85.434 7.263 101.351 o
-4 -11 8 24.197 28.769 9.657 131.507 o
-4 -11 9 22.800 23.232 10.113 124.940 o
-4 -11 10 64.927 76.038 7.699 109.357 o
-4 -11 11 34.152 27.906 11.858 89.611 o
-4 -11 12 55.053 60.689 7.437 129.807 o
-4 -10 1 20.962 19.121 7.437 210.040 o
-4 -10 2 294.010 261.790 10.753 18.123 o
-4 -10 3 89.741 82.341 6.215 100.828 o
-4 -10 4 76.290 62.560 6.138 124.031 o
-4 -10 5 26.333 18.791 7.922 182.540 o
-4 -10 6 0.121 5.333 7.612 257.816 o
-4 -10 7 14.358 17.279 8.348 185.626 o
-4 -10 8 0.898 -2.250 8.601 205.504 o
-4 -10 9 27.469 23.746 9.551 133.236 o
-4 -10 10 15.411 7.359 10.104 136.054 o
-4 -10 11 15.241 15.630 11.063 113.171 o
-4 -10 12 5.408 2.317 11.926 105.059 o
-4 -9 1 13.711 15.883 7.049 248.460 o
-4 -9 2 41.191 44.816 5.003 226.327 o
-4 -9 3 213.215 191.424 8.833 30.352 o
-4 -9 4 162.839 122.396 7.534 49.243 o
-4 -9 5 189.564 182.348 9.105 34.215 o
-4 -9 6 125.709 103.760 7.117 67.081 o
-4 -9 7 7.359 5.643 7.592 243.192 o
-4 -9 8 48.626 46.513 5.488 191.355 o
-4 -9 9 0.205 -2.395 8.795 197.449 o
-4 -9 10 51.624 30.902 5.517 201.284 o
-4 -9 11 13.316 6.109 10.705 124.014 o
-4 -9 12 27.044 14.700 12.053 92.473 o
-4 -8 1 310.137 321.780 10.840 15.485 o
-4 -8 2 2505.240 2654.140 29.457 0.338 o
-4 -8 3 1791.520 1602.520 22.835 0.721 o
-4 -8 4 1991.690 2008.790 26.199 0.544 o
-4 -8 5 1039.010 1058.470 19.538 1.853 o
-4 -8 6 77.359 103.993 7.020 95.342 o
-4 -8 7 112.011 109.287 7.292 71.361 o
-4 -8 8 133.012 149.352 8.533 51.273 o
-4 -8 9 192.876 219.834 10.676 29.076 o
-4 -8 10 212.425 231.547 11.694 25.177 o
-4 -8 11 141.285 156.061 10.627 42.670 o
-4 -8 12 21.001 21.623 11.665 99.028 o
-4 -8 13 8.118 8.911 12.392 95.504 o
-4 -7 1 723.889 742.482 14.971 3.621 o
-4 -7 2 383.656 353.051 10.666 11.828 o
-4 -7 3 16.848 6.167 6.109 317.723 o
-4 -7 4 44.151 32.366 4.198 266.376 o
-4 -7 5 100.901 63.491 5.566 104.614 o
-4 -7 6 42.641 23.494 3.946 302.823 o
-4 -7 7 34.783 25.404 3.956 338.360 o
-4 -7 8 137.202 112.874 7.573 58.889 o
-4 -7 9 38.007 38.368 5.139 240.447 o
-4 -7 10 32.934 18.074 9.493 132.331 o
-4 -7 11 6.022 5.110 9.880 149.920 o
-4 -7 12 3.391 -1.610 10.870 127.614 o
-4 -7 13 0.297 -1.134 12.305 100.900 o
-4 -6 1 300.384 310.688 9.502 16.770 o
-4 -6 2 2597.210 2411.380 25.346 0.345 o
-4 -6 3 1132.100 1142.990 17.512 1.605 o
-4 -6 4 415.983 370.572 10.336 10.591 o
-4 -6 5 94.331 108.462 6.419 86.365 o
-4 -6 6 21.031 26.907 3.859 436.273 o
-4 -6 7 6.267 9.386 6.438 324.565 o
-4 -6 8 227.450 207.830 9.784 26.644 o
-4 -6 9 98.208 75.796 6.758 92.545 o
-4 -6 10 132.824 115.938 8.601 56.272 o
-4 -6 11 34.127 20.857 10.278 114.988 o
-4 -6 12 12.063 9.464 10.937 118.919 o
-4 -6 13 1.066 3.500 11.703 110.519 o
-4 -5 1 4064.400 3956.320 30.718 0.140 o
-4 -5 2 3688.180 3543.360 28.914 0.170 o
-4 -5 3 1106.200 1058.740 15.873 1.741 o
-4 -5 4 491.425 499.823 11.325 7.362 o
-4 -5 5 134.182 122.357 6.341 62.338 o
-4 -5 6 632.487 692.401 14.661 4.420 o
-4 -5 7 666.439 689.163 15.456 4.150 o
-4 -5 8 906.475 931.550 19.121 2.361 o
-4 -5 9 476.078 510.615 15.349 7.155 o
-4 -5 10 176.589 196.514 10.598 32.954 o
-4 -5 11 25.611 23.416 10.026 124.683 o
-4 -5 12 10.314 8.523 10.511 129.414 o
-4 -5 13 10.129 6.564 11.946 102.128 o
-4 -4 1 104.370 90.466 5.217 92.976 o
-4 -4 2 8.024 -2.550 4.451 640.227 o
-4 -4 3 191.969 183.376 6.623 36.930 o
-4 -4 4 9.891 8.542 4.460 559.301 o
-4 -4 5 1.050 -4.780 4.790 651.910 o
-4 -4 6 326.160 292.168 9.386 15.896 o
-4 -4 7 198.748 215.209 9.027 30.496 o
-4 -4 8 4.132 -0.039 6.836 313.458 o
-4 -4 9 54.725 46.503 5.459 179.500 o
-4 -4 10 18.512 9.105 8.407 183.365 o
-4 -4 11 1.077 -0.145 9.124 182.523 o
-4 -4 12 6.540 4.732 10.414 135.327 o
-4 -4 13 1.635 1.745 11.829 108.317 o
-4 -3 1 3648.360 3721.650 26.655 0.168 o
-4 -3 2 3649.360 3571.800 25.976 0.172 o
-4 -3 3 1047.290 1092.430 14.738 1.835 o
-4 -3 4 1027.360 1023.190 14.913 1.956 o
-4 -3 5 466.847 553.201 11.694 7.297 o
-4 -3 6 359.365 338.933 9.958 13.133 o
-4 -3 7 1317.820 1300.410 20.420 1.216 o
-4 -3 8 286.300 287.892 10.559 17.876 o
-4 -3 9 198.399 199.452 9.764 30.773 o
-4 -3 10 49.905 43.934 5.556 189.598 o
-4 -3 11 3.732 3.888 9.124 177.606 o
-4 -3 12 12.980 7.379 10.579 126.590 o
-4 -3 13 14.810 11.054 12.082 97.384 o
-4 -2 1 2792.080 2692.200 21.429 0.294 o
-4 -2 2 1243.860 1188.430 14.447 1.407 o
-4 -2 3 69.196 108.705 4.897 119.448 o
-4 -2 4 933.890 987.003 14.254 2.253 o
-4 -2 5 434.643 369.127 9.434 10.208 o
-4 -2 6 1748.900 1748.370 22.069 0.706 o
-4 -2 7 1655.490 1671.750 23.096 0.777 o
-4 -2 8 245.993 264.805 10.142 21.832 o
-4 -2 9 196.180 203.816 10.016 30.473 o
-4 -2 10 60.004 62.211 6.099 145.115 o
-4 -2 11 32.712 24.677 9.832 122.941 o
-4 -2 12 104.362 113.650 9.134 64.600 o
-4 -2 13 32.194 23.242 12.595 82.459 o
-4 -1 1 941.716 987.885 12.760 2.242 o
-4 -1 2 506.747 571.702 9.648 6.666 o
-4 -1 3 87.890 92.367 4.577 110.864 o
-4 -1 4 464.425 371.038 8.804 9.473 o
-4 -1 5 427.554 419.955 10.113 9.637 o
-4 -1 6 315.550 287.097 9.289 16.650 o
-4 -1 7 0.023 -0.039 5.866 444.202 o
-4 -1 8 20.100 15.630 6.642 255.268 o
-4 -1 9 6.329 5.100 7.020 284.145 o
-4 -1 10 3.054 2.104 8.067 227.816 o
-4 -1 11 6.752 5.653 9.396 164.089 o
-4 -1 12 2.575 1.639 10.617 133.654 o
-4 -1 13 0.271 -2.686 12.072 104.833 o
-4 0 1 2637.040 2646.290 19.780 0.321 o
-4 0 2 277.016 240.565 6.448 22.140 o
-4 0 3 959.859 1043.340 13.313 2.111 o
-4 0 4 1369.830 1391.720 16.610 1.123 o
-4 0 5 3437.960 3628.910 28.875 0.184 o
-4 0 6 1407.040 1403.130 19.509 1.072 o
-4 0 7 1066.300 1108.930 18.685 1.751 o
-4 0 8 125.383 149.197 7.835 55.810 o
-4 0 9 167.459 177.025 9.144 38.499 o
-4 0 10 63.136 74.719 6.516 127.021 o
-4 0 11 57.190 37.631 5.866 173.830 o
-4 0 12 57.031 49.655 7.214 137.629 o
-4 0 13 37.881 30.049 13.071 74.743 o
-4 1 1 190.240 102.267 4.528 49.970 o
-4 1 2 1532.440 1449.730 14.845 0.953 o
-4 1 3 2905.230 2775.470 21.584 0.274 o
-4 1 4 2525.880 2286.360 21.244 0.371 o
-4 1 5 4850.010 4880.540 33.501 0.097 o
-4 1 6 952.831 905.409 15.708 2.302 o
-4 1 7 421.461 476.804 12.789 8.775 o
-4 1 8 134.114 158.583 8.019 51.062 o
-4 1 9 107.981 121.979 7.796 67.883 o
-4 1 10 167.777 190.076 10.239 35.396 o
-4 1 11 167.221 202.274 11.374 32.693 o
-4 1 12 66.342 66.798 7.980 108.599 o
-4 1 13 34.594 25.530 13.313 73.984 o
-4 2 1 210.820 176.046 5.585 35.206 o
-4 2 2 240.288 211.447 6.186 27.689 o
-4 2 3 53.578 23.155 2.928 291.600 o
-4 2 4 15.233 2.201 4.189 582.826 o
-4 2 5 78.073 87.625 5.207 118.386 o
-4 2 6 60.598 42.227 4.499 193.158 o
-4 2 7 80.542 80.886 5.682 114.740 o
-4 2 8 16.577 12.954 6.923 252.148 o
-4 2 9 9.252 4.645 7.699 234.272 o
-4 2 10 27.328 18.151 9.667 133.041 o
-4 2 11 4.944 5.575 10.104 144.252 o
-4 2 12 2.626 5.362 11.257 118.185 o
-4 3 1 58.236 78.007 4.053 168.196 o
-4 3 2 3547.420 3626.810 24.018 0.177 o
-4 3 3 5149.330 5191.020 30.514 0.086 o
-4 3 4 3759.000 3864.480 28.478 0.157 o
-4 3 5 2397.410 2439.090 24.405 0.381 o
-4 3 6 110.531 112.040 6.167 76.843 o
-4 3 7 82.249 85.919 5.915 108.432 o
-4 3 8 142.149 169.927 8.591 45.910 o
-4 3 9 247.835 267.346 11.917 20.446 o
-4 3 10 213.518 248.777 12.469 23.543 o
-4 3 11 174.660 201.285 12.111 30.624 o
-4 3 12 57.767 47.337 7.301 136.569 o
-4 4 1 8370.640 7954.050 35.576 0.034 o
-4 4 2 4101.410 3777.870 25.540 0.142 o
-4 4 3 6591.910 6333.910 35.071 0.054 o
-4 4 4 1203.090 990.988 15.058 1.628 o
-4 4 5 783.069 822.127 14.787 3.107 o
-4 4 6 132.670 136.155 6.933 58.379 o
-4 4 7 823.304 955.015 18.530 2.606 o
-4 4 8 624.763 693.361 17.250 4.372 o
-4 4 9 595.516 670.943 18.258 4.646 o
-4 4 10 160.730 161.472 10.472 38.679 o
-4 4 11 98.107 101.016 9.677 66.610 o
-4 4 12 9.517 4.567 11.926 103.066 o
-4 5 1 308.999 260.180 7.185 18.601 o
-4 5 2 2316.530 2660.530 22.486 0.375 o
-4 5 3 11.493 3.626 4.344 591.931 o
-4 5 4 173.936 146.705 6.351 45.366 o
-4 5 5 23.686 13.216 5.362 331.755 o
-4 5 6 113.760 109.849 6.710 73.133 o
-4 5 7 1.412 -0.921 6.729 332.612 o
-4 5 8 34.252 28.119 4.489 303.845 o
-4 5 9 14.916 7.621 8.891 171.519 o
-4 5 10 3.485 1.862 9.948 151.147 o
-4 5 11 0.840 -1.251 11.190 121.731 o
-4 5 12 0.816 -0.087 11.742 110.584 o
-4 6 1 8156.840 8079.730 39.648 0.035 o
-4 6 2 3206.050 3010.200 25.191 0.228 o
-4 6 3 3045.420 2901.690 26.306 0.249 o
-4 6 4 594.553 593.548 12.624 5.293 o
-4 6 5 96.465 87.819 5.604 97.740 o
-4 6 6 452.532 452.651 12.819 8.373 o
-4 6 7 431.943 452.205 13.652 8.700 o
-4 6 8 614.268 650.213 17.870 4.597 o
-4 6 9 259.775 277.672 13.051 18.578 o
-4 6 10 161.846 170.683 11.296 36.052 o
-4 6 11 2.483 2.793 10.870 127.351 o
-4 7 1 5749.290 5384.340 34.635 0.072 o
-4 7 2 1393.380 1401.430 18.355 1.090 o
-4 7 3 789.554 829.215 14.748 3.062 o
-4 7 4 146.309 167.687 7.418 47.817 o
-4 7 5 433.941 458.556 12.537 8.734 o
-4 7 6 1168.460 1233.880 21.613 1.449 o
-4 7 7 949.799 1013.960 20.740 2.102 o
-4 7 8 382.229 382.741 14.447 10.632 o
-4 7 9 167.999 177.199 10.627 35.748 o
-4 7 10 49.433 34.315 5.895 191.472 o
-4 7 11 2.168 2.201 11.577 112.724 o
-4 8 1 515.741 445.932 10.773 7.451 o
-4 8 2 277.339 263.903 8.698 20.159 o
-4 8 3 18.015 11.936 5.527 348.823 o
-4 8 4 2.440 1.251 5.634 459.886 o
-4 8 5 441.205 407.088 12.237 9.187 o
-4 8 6 78.361 72.373 6.448 113.223 o
-4 8 7 0.587 5.585 8.261 218.696 o
-4 8 8 18.066 10.394 9.279 154.536 o
-4 8 9 4.107 -1.561 10.220 143.598 o
-4 8 10 0.045 2.259 10.608 135.203 o
-4 8 11 0.903 -0.048 12.091 104.278 o
-4 9 1 2616.240 2543.270 26.703 0.330 o
-4 9 2 436.159 439.028 11.432 9.038 o
-4 9 3 26.709 29.593 3.956 375.208 o
-4 9 4 239.555 239.023 9.570 23.948 o
-4 9 5 535.672 531.889 14.787 6.202 o
-4 9 6 1087.670 1118.260 22.321 1.673 o
-4 9 7 770.350 813.314 20.517 3.060 o
-4 9 8 258.284 297.976 13.158 17.984 o
-4 9 9 31.051 18.258 10.724 109.886 o
-4 9 10 0.891 -1.144 11.199 121.497 o
-4 10 1 47.403 46.552 4.858 211.466 o
-4 10 2 6.518 13.371 6.196 337.591 o
-4 10 3 554.189 611.631 14.796 5.511 o
-4 10 4 1162.880 1205.220 21.662 1.479 o
-4 10 5 1208.400 1249.500 23.232 1.372 o
-4 10 6 749.984 760.440 19.392 3.311 o
-4 10 7 53.160 43.061 6.050 171.906 o
-4 10 8 90.230 87.936 7.709 86.606 o
-4 10 9 1.747 -0.776 10.840 129.180 o
-4 10 10 6.747 2.424 11.985 103.547 o
-4 11 1 86.836 78.840 5.934 107.291 o
-4 11 2 275.407 249.359 10.026 20.189 o
-4 11 3 353.702 345.575 12.033 12.725 o
-4 11 4 72.176 60.544 6.273 128.093 o
-4 11 5 0.566 4.344 8.475 208.989 o
-4 11 6 83.335 56.539 6.671 113.581 o
-4 11 7 21.572 13.585 9.822 135.854 o
-4 11 8 2.752 -0.941 10.346 141.069 o
-4 11 9 0.414 -3.403 11.577 113.912 o
-4 12 1 127.091 154.607 8.125 53.479 o
-4 12 2 230.584 241.214 10.239 24.204 o
-4 12 3 516.162 504.584 15.252 6.611 o
-4 12 4 743.332 794.580 19.325 3.261 o
-4 12 5 685.790 717.020 19.480 3.785 o
-4 12 6 352.404 427.926 15.766 10.540 o
-4 12 7 9.641 8.135 10.133 139.189 o
-4 12 8 3.940 4.005 11.180 119.489 o
-4 12 9 1.432 2.725 12.295 100.243 o
-4 13 1 92.967 116.239 7.389 78.881 o
-4 13 2 512.524 590.532 16.270 6.012 o
-4 13 3 593.239 663.157 18.151 4.703 o
-4 13 4 523.902 557.730 17.482 5.977 o
-4 13 5 132.985 129.610 9.318 51.686 o
-4 13 6 29.042 17.637 10.802 109.869 o
-4 13 7 2.070 6.157 10.617 132.617 o
-4 13 8 10.943 4.189 11.849 103.875 o
-4 14 1 132.937 136.320 8.523 53.264 o
-4 14 2 91.134 81.807 7.292 91.238 o
-4 14 3 6.319 2.870 9.095 176.462 o
-4 14 4 21.293 17.744 9.871 133.328 o
-4 14 5 65.781 48.375 6.603 138.224 o
-4 14 6 0.778 4.363 10.482 137.355 o
-4 14 7 1.071 2.114 11.432 116.076 o
-4 15 1 161.772 169.132 9.803 39.107 o
-4 15 2 365.806 431.523 15.475 10.197 o
-4 15 3 344.908 362.505 15.010 11.937 o
-4 15 4 240.041 276.664 13.497 19.613 o
-4 15 5 28.844 24.105 11.432 98.429 o
-4 15 6 0.711 -0.184 11.568 113.979 o
-4 16 1 272.869 338.982 14.467 15.451 o
-4 16 2 224.209 254.324 12.925 22.019 o
-4 16 3 104.750 104.943 9.308 65.249 o
-4 16 4 28.785 26.335 11.665 94.687 o
-4 16 5 3.372 3.035 11.480 113.910 o
-4 16 6 2.981 1.813 12.353 98.955 o
-4 17 1 25.591 26.413 11.209 102.762 o
-4 17 2 13.185 8.668 10.966 117.946 o
-4 17 3 44.300 32.201 12.082 82.300 o
-4 17 4 3.429 1.154 11.645 111.128 o
-4 18 1 140.796 161.511 11.296 40.564 o
-4 18 2 63.970 59.496 7.359 122.333 o
-4 18 3 32.160 25.259 12.964 78.184 o
-4 19 1 11.470 9.318 12.353 94.876 o
-4 19 2 21.049 18.607 12.722 85.322 o
-3 -17 1 0.519 -1.251 12.498 97.729 o
-3 -17 2 0.848 -0.708 12.324 100.406 o
-3 -17 3 9.233 -0.242 11.994 102.911 o
-3 -17 4 13.095 7.437 11.946 100.817 o
-3 -17 5 0.400 -2.162 11.829 109.121 o
-3 -17 6 0.020 1.474 11.684 111.708 o
-3 -17 7 1.562 3.336 12.033 104.454 o
-3 -16 1 161.635 178.014 11.568 34.992 o
-3 -16 2 133.736 138.191 10.685 46.130 o
-3 -16 3 78.897 86.481 8.678 86.068 o
-3 -16 4 14.307 12.421 10.996 115.783 o
-3 -16 5 6.406 4.082 10.811 126.178 o
-3 -16 6 16.800 17.259 11.374 106.514 o
-3 -16 7 36.108 24.202 12.091 86.738 o
-3 -16 8 72.425 64.548 8.096 103.312 o
-3 -16 9 29.454 19.712 13.090 78.467 o
-3 -15 1 163.641 191.414 11.597 33.627 o
-3 -15 2 32.761 35.440 5.624 240.921 o
-3 -15 3 0.184 -3.045 10.026 151.986 o
-3 -15 4 1.108 2.880 9.502 167.027 o
-3 -15 5 4.868 0.262 10.007 148.997 o
-3 -15 6 39.805 31.406 11.170 95.217 o
-3 -15 7 90.423 97.089 8.630 77.349 o
-3 -15 8 32.851 31.765 12.547 81.370 o
-3 -15 9 12.129 9.628 12.053 99.096 o
-3 -15 10 2.985 5.779 12.498 96.074 o
-3 -14 1 67.740 53.000 6.749 130.790 o
-3 -14 2 94.948 82.389 7.563 86.487 o
-3 -14 3 11.350 8.698 9.018 170.584 o
-3 -14 4 7.234 5.682 8.785 185.683 o
-3 -14 5 1.590 3.287 9.153 179.094 o
-3 -14 6 7.926 7.679 9.745 151.301 o
-3 -14 7 0.422 -6.739 10.230 145.839 o
-3 -14 8 40.461 13.400 11.316 97.187 o
-3 -14 9 16.051 13.536 11.131 112.044 o
-3 -14 10 10.890 9.502 11.791 103.802 o
-3 -13 1 259.402 304.124 12.974 17.834 o
-3 -13 2 42.579 59.176 6.041 176.698 o
-3 -13 3 11.769 12.266 8.329 193.609 o
-3 -13 4 62.249 50.004 5.624 159.380 o
-3 -13 5 180.648 164.507 9.929 35.902 o
-3 -13 6 414.799 458.992 15.960 8.651 o
-3 -13 7 279.970 317.970 13.691 15.970 o
-3 -13 8 211.428 247.701 12.547 23.705 o
-3 -13 9 24.509 20.362 10.811 111.465 o
-3 -13 10 8.268 8.290 11.180 116.325 o
-3 -13 11 0.706 2.618 11.742 110.113 o
-3 -12 1 9.940 10.966 8.038 210.107 o
-3 -12 2 1.239 1.387 7.389 275.325 o
-3 -12 3 40.713 33.762 4.741 254.872 o
-3 -12 4 241.275 235.813 10.743 23.076 o
-3 -12 5 405.152 484.319 15.097 8.720 o
-3 -12 6 331.863 380.879 13.914 12.374 o
-3 -12 7 50.160 51.487 6.235 165.614 o
-3 -12 8 15.414 13.943 9.609 146.138 o
-3 -12 9 0.050 -1.357 9.890 156.286 o
-3 -12 10 9.180 10.210 10.685 125.656 o
-3 -12 11 5.138 3.723 11.636 110.071 o
-3 -11 1 341.458 375.857 12.566 12.482 o
-3 -11 2 31.495 22.001 7.418 189.140 o
-3 -11 3 12.315 5.507 7.146 259.041 o
-3 -11 4 11.232 -0.611 7.292 259.272 o
-3 -11 5 29.188 7.214 7.883 188.426 o
-3 -11 6 427.600 373.491 13.235 9.774 o
-3 -11 7 105.210 95.469 7.418 77.693 o
-3 -11 8 86.079 73.566 6.826 102.068 o
-3 -11 9 4.241 -0.979 9.454 167.146 o
-3 -11 10 5.659 3.888 9.948 148.712 o
-3 -11 11 3.832 1.571 10.986 124.328 o
-3 -11 12 4.697 1.697 12.101 102.480 o
-3 -10 1 25.794 33.074 4.518 331.547 o
-3 -10 2 54.398 52.447 5.284 178.204 o
-3 -10 3 840.005 787.754 17.065 2.889 o
-3 -10 4 1133.230 1181.210 21.119 1.548 o
-3 -10 5 904.802 901.181 18.927 2.416 o
-3 -10 6 638.892 714.683 17.221 4.190 o
-3 -10 7 81.542 98.727 7.030 94.136 o
-3 -10 8 44.524 41.781 5.275 212.642 o
-3 -10 9 23.476 17.162 9.231 147.424 o
-3 -10 10 43.756 34.296 5.265 224.957 o
-3 -10 11 49.184 33.287 6.273 182.470 o
-3 -10 12 44.130 25.075 12.702 77.188 o
-3 -9 1 1.840 -5.255 6.215 386.804 o
-3 -9 2 1135.900 1134.510 19.169 1.596 o
-3 -9 3 938.701 932.781 17.463 2.284 o
-3 -9 4 1377.390 1412.000 22.040 1.088 o
-3 -9 5 656.420 714.683 16.067 4.109 o
-3 -9 6 293.302 333.503 11.587 15.774 o
-3 -9 7 65.345 58.798 5.711 146.317 o
-3 -9 8 69.946 68.591 6.080 128.582 o
-3 -9 9 55.879 57.867 6.157 153.173 o
-3 -9 10 38.177 28.119 10.394 108.249 o
-3 -9 11 74.821 76.348 8.029 97.920 o
-3 -9 12 20.508 10.947 11.878 98.251 o
-3 -8 1 3.911 4.606 5.566 448.414 o
-3 -8 2 5.739 -0.621 5.769 422.851 o
-3 -8 3 183.288 141.149 7.553 41.722 o
-3 -8 4 628.785 606.764 13.914 4.841 o
-3 -8 5 822.621 872.034 16.842 2.793 o
-3 -8 6 625.968 635.775 15.117 4.687 o
-3 -8 7 126.139 134.768 7.544 59.032 o
-3 -8 8 61.205 47.230 5.226 171.348 o
-3 -8 9 30.256 17.628 8.610 156.845 o
-3 -8 10 54.197 27.169 5.507 199.940 o
-3 -8 11 9.733 7.912 10.104 139.952 o
-3 -8 12 9.055 2.531 11.267 115.616 o
-3 -8 13 7.408 5.042 12.392 96.379 o
-3 -7 1 1294.830 1297.020 18.714 1.252 o
-3 -7 2 4678.170 4559.640 34.412 0.106 o
-3 -7 3 4512.520 4366.530 34.276 0.114 o
-3 -7 4 2856.350 2886.480 28.614 0.271 o
-3 -7 5 742.823 744.131 14.884 3.510 o
-3 -7 6 54.948 78.152 5.449 151.633 o
-3 -7 7 30.922 25.404 3.995 358.855 o
-3 -7 8 218.258 222.355 10.162 26.509 o
-3 -7 9 335.839 344.576 13.061 13.141 o
-3 -7 10 259.741 269.876 12.605 19.097 o
-3 -7 11 129.621 136.795 9.464 51.149 o
-3 -7 12 10.982 4.295 11.141 116.738 o
-3 -7 13 19.069 10.249 12.557 89.374 o
-3 -6 1 4135.840 4178.700 31.193 0.132 o
-3 -6 2 2954.350 2647.200 24.948 0.275 o
-3 -6 3 786.510 739.787 13.226 3.322 o
-3 -6 4 400.870 416.125 10.268 10.381 o
-3 -6 5 14.538 19.499 3.200 644.680 o
-3 -6 6 220.732 201.518 8.096 29.389 o
-3 -6 7 532.825 591.094 14.535 5.887 o
-3 -6 8 223.818 237.588 9.958 25.286 o
-3 -6 9 302.670 315.536 12.314 15.478 o
-3 -6 10 105.039 100.085 7.864 74.024 o
-3 -6 11 7.447 6.758 9.502 159.478 o
-3 -6 12 3.801 -0.785 10.773 129.660 o
-3 -6 13 3.285 -0.233 11.936 106.119 o
-3 -5 1 1480.930 1612.020 18.404 0.923 o
-3 -5 2 1618.730 1388.800 16.881 0.906 o
-3 -5 3 2307.250 2377.990 22.418 0.407 o
-3 -5 4 85.495 58.866 4.237 136.689 o
-3 -5 5 154.404 183.395 7.059 44.414 o
-3 -5 6 29.538 16.842 3.180 467.851 o
-3 -5 7 13.775 10.317 6.118 320.907 o
-3 -5 8 775.572 731.506 16.910 3.320 o
-3 -5 9 45.694 33.830 5.246 220.951 o
-3 -5 10 65.044 46.600 5.857 153.374 o
-3 -5 11 54.230 40.715 5.992 173.456 o
-3 -5 12 0.858 -0.630 10.307 143.369 o
-3 -5 13 1.439 -3.917 11.858 108.195 o
-3 -4 1 7641.870 7210.510 35.644 0.041 o
-3 -4 2 6008.200 6132.950 32.880 0.063 o
-3 -4 3 596.586 486.413 9.687 6.019 o
-3 -4 4 1153.870 1317.590 16.590 1.435 o
-3 -4 5 477.398 481.352 10.763 7.821 o
-3 -4 6 1277.010 1322.090 19.073 1.257 o
-3 -4 7 2752.930 2723.530 30.000 0.295 o
-3 -4 8 1391.690 1362.650 22.651 1.096 o
-3 -4 9 625.911 697.802 17.172 4.350 o
-3 -4 10 60.293 57.063 5.905 151.777 o
-3 -4 11 45.114 46.319 5.866 188.800 o
-3 -4 12 8.996 8.572 10.637 127.330 o
-3 -4 13 18.260 9.832 12.091 96.178 o
-3 -3 1 2556.210 2567.090 19.897 0.341 o
-3 -3 2 935.387 825.385 11.442 2.532 o
-3 -3 3 220.340 241.175 6.671 28.010 o
-3 -3 4 1079.460 1058.080 14.273 1.806 o
-3 -3 5 1257.750 1213.890 16.435 1.362 o
-3 -3 6 385.368 347.970 9.997 11.985 o
-3 -3 7 1189.810 1218.230 19.645 1.440 o
-3 -3 8 27.512 18.675 6.758 226.648 o
-3 -3 9 95.692 84.862 6.400 93.761 o
-3 -3 10 0.684 -1.008 8.087 232.643 o
-3 -3 11 36.674 25.802 9.764 120.898 o
-3 -3 12 41.574 34.441 11.587 88.511 o
-3 -3 13 21.566 15.504 12.111 93.600 o
-3 -2 1 1595.870 1528.160 14.418 0.876 o
-3 -2 2 1744.280 1568.100 14.942 0.767 o
-3 -2 3 28.692 40.356 3.287 369.323 o
-3 -2 4 292.795 306.111 7.718 17.977 o
-3 -2 5 226.980 233.370 7.379 27.179 o
-3 -2 6 1411.710 1417.790 19.150 1.062 o
-3 -2 7 935.669 937.203 16.988 2.292 o
-3 -2 8 64.097 65.275 5.614 144.973 o
-3 -2 9 84.768 72.295 6.244 109.306 o
-3 -2 10 0.949 1.164 7.893 242.544 o
-3 -2 11 2.429 -1.590 9.279 175.155 o
-3 -2 12 0.192 -0.475 10.482 139.062 o
-3 -2 13 7.566 5.459 11.839 105.120 o
-3 -1 1 1948.740 1898.180 15.223 0.590 o
-3 -1 2 316.837 328.597 6.836 16.106 o
-3 -1 3 247.854 221.880 6.041 26.241 o
-3 -1 4 3280.770 3325.460 24.076 0.208 o
-3 -1 5 5283.590 5333.240 33.452 0.081 o
-3 -1 6 6533.800 6680.690 41.267 0.053 o
-3 -1 7 1761.520 1869.620 24.085 0.667 o
-3 -1 8 144.303 146.482 7.689 50.726 o
-3 -1 9 147.907 158.883 8.649 45.714 o
-3 -1 10 42.020 33.297 4.780 249.663 o
-3 -1 11 79.020 82.700 7.582 96.933 o
-3 -1 12 77.198 75.301 8.659 90.589 o
-3 -1 13 42.077 29.360 13.138 73.006 o
-3 0 1 1.510 2.657 3.491 1125.670 o
-3 0 2 2254.540 2374.890 16.891 0.422 o
-3 0 3 4603.410 4509.380 25.113 0.109 o
-3 0 4 2915.160 2877.470 22.263 0.266 o
-3 0 5 2286.710 2239.970 22.069 0.428 o
-3 0 6 853.387 847.357 14.777 2.753 o
-3 0 7 54.167 44.554 4.363 209.475 o
-3 0 8 2.153 1.939 6.332 367.294 o
-3 0 9 173.716 186.527 9.221 36.356 o
-3 0 10 53.414 52.457 5.440 176.689 o
-3 0 11 129.776 132.529 9.163 52.703 o
-3 0 12 23.988 15.349 11.451 102.363 o
-3 0 13 5.451 -5.818 12.770 92.226 o
-3 1 1 478.340 531.142 8.077 7.546 o
-3 1 2 50.577 97.031 4.470 158.594 o
-3 1 3 470.146 416.668 7.990 8.870 o
-3 1 4 6377.970 6848.260 34.684 0.054 o
-3 1 5 1941.600 1928.230 20.643 0.582 o
-3 1 6 1328.220 1419.390 19.276 1.144 o
-3 1 7 90.985 81.584 5.604 105.084 o
-3 1 8 33.483 43.953 4.683 264.944 o
-3 1 9 20.358 13.914 7.427 216.695 o
-3 1 10 2.532 3.112 8.397 210.797 o
-3 1 11 9.281 1.619 9.987 145.727 o
-3 1 12 27.895 20.469 11.965 92.196 o
-3 1 13 13.443 9.173 12.673 89.796 o
-3 2 1 44.600 39.852 3.646 270.093 o
-3 2 2 8765.540 8436.190 32.201 0.031 o
-3 2 3 7532.840 7743.580 34.024 0.040 o
-3 2 4 10789.400 11061.000 45.136 0.020 o
-3 2 5 5044.940 5263.230 34.528 0.087 o
-3 2 6 58.119 55.802 4.538 182.707 o
-3 2 7 125.558 144.436 7.263 58.421 o
-3 2 8 1.681 0.184 6.516 352.934 o
-3 2 9 201.768 210.962 10.259 29.005 o
-3 2 10 119.870 129.600 9.367 55.426 o
-3 2 11 213.225 236.618 13.206 23.417 o
-3 2 12 78.099 77.405 8.513 90.719 o
-3 3 1 7420.380 7526.780 29.942 0.042 o
-3 3 2 3049.070 3030.990 20.440 0.243 o
-3 3 3 2483.400 2209.230 19.073 0.389 o
-3 3 4 3716.160 3936.150 28.051 0.158 o
-3 3 5 104.135 106.998 5.488 85.713 o
-3 3 6 43.146 40.501 3.898 265.698 o
-3 3 7 86.059 81.478 5.769 108.255 o
-3 3 8 415.248 453.737 13.449 9.077 o
-3 3 9 365.037 405.779 14.089 10.871 o
-3 3 10 125.724 108.375 8.639 59.856 o
-3 3 11 20.632 11.238 10.831 115.821 o
-3 3 12 4.603 -0.155 11.732 109.266 o
-3 4 1 29.380 21.855 3.239 440.314 o
-3 4 2 8890.360 8973.780 36.991 0.029 o
-3 4 3 4761.300 4648.950 29.050 0.102 o
-3 4 4 1972.390 1923.500 20.420 0.572 o
-3 4 5 246.090 222.112 7.786 25.374 o
-3 4 6 4.032 4.402 5.478 461.317 o
-3 4 7 111.555 82.932 6.109 85.323 o
-3 4 8 18.848 16.648 7.757 202.586 o
-3 4 9 67.543 63.258 6.584 127.569 o
-3 4 10 127.974 137.290 9.696 50.778 o
-3 4 11 97.948 89.332 8.552 76.040 o
-3 4 12 5.210 6.661 11.868 105.306 o
-3 5 1 11314.200 10541.400 40.404 0.019 o
-3 5 2 9082.030 8833.390 39.047 0.029 o
-3 5 3 3248.820 2987.720 24.628 0.225 o
-3 5 4 415.242 359.150 9.328 10.934 o
-3 5 5 1.916 -0.456 5.158 555.061 o
-3 5 6 53.240 63.530 5.139 172.750 o
-3 5 7 343.563 360.216 11.936 12.856 o
-3 5 8 416.354 440.763 14.195 9.087 o
-3 5 9 393.033 407.282 14.476 10.005 o
-3 5 10 169.892 181.417 11.025 34.418 o
-3 5 11 35.115 28.449 11.636 91.924 o
-3 5 12 0.057 0.805 12.004 105.954 o
-3 6 1 1278.160 1200.190 14.961 1.349 o
-3 6 2 1752.090 1677.540 18.530 0.728 o
-3 6 3 66.654 62.182 4.412 161.846 o
-3 6 4 71.906 77.415 4.800 136.474 o
-3 6 5 18.803 12.644 5.459 349.059 o
-3 6 6 339.968 356.047 11.238 13.258 o
-3 6 7 336.380 319.744 11.897 13.973 o
-3 6 8 88.272 66.342 6.535 106.015 o
-3 6 9 21.697 10.385 9.279 151.049 o
-3 6 10 6.366 3.345 10.249 140.124 o
-3 6 11 0.323 1.910 11.054 124.511 o
-3 7 1 5228.650 5091.160 32.376 0.085 o
-3 7 2 594.353 489.099 10.637 5.985 o
-3 7 3 590.515 582.659 12.188 5.413 o
-3 7 4 112.580 129.465 6.448 69.996 o
-3 7 5 1.340 1.193 5.808 440.879 o
-3 7 6 9.779 9.105 6.729 289.471 o
-3 7 7 128.193 119.429 7.912 59.775 o
-3 7 8 174.409 195.797 10.268 33.838 o
-3 7 9 168.483 175.027 10.617 35.865 o
-3 7 10 17.064 5.973 10.714 121.666 o
-3 7 11 3.661 2.094 11.655 110.658 o
-3 8 1 3359.150 3310.480 28.022 0.201 o
-3 8 2 651.084 619.514 12.702 4.638 o
-3 8 3 15.724 19.179 3.268 616.523 o
-3 8 4 100.429 96.478 6.031 88.714 o
-3 8 5 137.503 145.299 7.709 52.907 o
-3 8 6 620.582 619.980 16.009 4.761 o
-3 8 7 575.387 637.588 17.240 5.025 o
-3 8 8 304.871 322.440 13.652 14.695 o
-3 8 9 153.069 169.219 10.394 39.549 o
-3 8 10 2.492 3.636 10.870 127.119 o
-3 9 1 50.257 56.694 4.897 191.255 o
-3 9 2 65.470 45.475 4.431 180.111 o
-3 9 3 6.962 4.131 5.760 404.687 o
-3 9 4 31.638 25.375 4.402 328.494 o
-3 9 5 279.878 256.689 10.424 19.393 o
-3 9 6 136.472 139.791 8.465 51.859 o
-3 9 7 1.906 2.337 8.630 201.228 o
-3 9 8 10.107 7.796 9.493 156.885 o
-3 9 9 0.121 1.949 10.259 144.563 o
-3 9 10 5.461 -1.338 11.636 110.709 o
-3 10 1 581.477 600.946 13.555 5.345 o
-3 10 2 6.205 6.002 5.827 395.453 o
-3 10 3 44.235 36.390 4.790 237.143 o
-3 10 4 29.036 20.110 3.791 405.128 o
-3 10 5 174.699 166.175 9.114 38.206 o
-3 10 6 402.378 444.826 14.893 9.247 o
-3 10 7 266.865 277.982 12.867 18.233 o
-3 10 8 39.612 31.707 10.831 99.882 o
-3 10 9 13.522 8.475 11.054 116.099 o
-3 10 10 3.822 -1.387 12.460 97.309 o
-3 11 1 52.459 70.938 5.672 157.380 o
-3 11 2 63.069 69.357 5.634 143.236 o
-3 11 3 612.433 655.012 16.086 4.677 o
-3 11 4 465.943 486.297 14.457 7.619 o
-3 11 5 539.372 569.569 16.561 5.796 o
-3 11 6 402.826 437.011 15.834 9.165 o
-3 11 7 86.479 88.352 8.184 85.102 o
-3 11 8 20.640 11.490 10.966 113.210 o
-3 11 9 2.986 2.599 11.655 110.831 o
-3 12 1 6.068 4.305 6.710 310.778 o
-3 12 2 63.278 50.712 5.566 158.188 o
-3 12 3 4.118 3.006 7.553 255.404 o
-3 12 4 12.694 9.434 8.445 189.614 o
-3 12 5 1.518 -1.018 9.144 181.287 o
-3 12 6 0.622 -2.288 9.861 156.761 o
-3 12 7 10.419 2.094 10.443 132.974 o
-3 12 8 1.984 1.677 11.141 121.828 o
-3 13 1 229.770 249.989 10.705 23.505 o
-3 13 2 188.980 181.291 9.376 34.011 o
-3 13 3 189.894 197.368 10.055 31.735 o
-3 13 4 262.459 278.991 12.469 18.703 o
-3 13 5 184.449 217.235 11.529 29.217 o
-3 13 6 69.961 69.891 7.389 111.390 o
-3 13 7 2.145 -0.941 11.160 121.737 o
-3 13 8 19.566 12.925 12.295 92.259 o
-3 14 1 252.031 318.193 12.518 18.100 o
-3 14 2 192.070 196.980 10.181 31.292 o
-3 14 3 313.798 365.249 14.292 13.209 o
-3 14 4 238.023 262.730 12.838 20.706 o
-3 14 5 131.825 135.379 9.900 49.351 o
-3 14 6 18.428 6.458 11.209 111.212 o
-3 14 7 14.349 9.880 12.043 98.363 o
-3 15 1 15.474 8.727 8.940 168.631 o
-3 15 2 0.931 -0.320 9.299 175.921 o
-3 15 3 0.421 -0.882 9.735 160.999 o
-3 15 4 1.451 2.220 10.259 143.577 o
-3 15 5 4.192 1.862 10.850 127.124 o
-3 15 6 0.289 -2.647 11.781 110.062 o
-3 16 1 196.021 211.330 11.519 28.204 o
-3 16 2 144.408 142.613 10.133 44.735 o
-3 16 3 108.461 96.672 8.853 67.815 o
-3 16 4 76.982 86.045 8.562 88.322 o
-3 16 5 3.075 0.368 11.849 107.679 o
-3 17 1 170.178 193.499 12.140 31.670 o
-3 17 2 113.988 109.287 9.580 59.787 o
-3 17 3 82.629 96.594 9.502 75.200 o
-3 17 4 18.158 18.239 12.353 91.033 o
-3 18 1 9.666 5.837 11.480 110.518 o
-3 18 2 0.002 1.193 11.519 114.986 o
-3 18 3 0.767 2.056 12.159 102.815 o
-3 19 1 39.521 28.003 13.206 73.290 o
-2 -18 1 2.455 0.000 12.285 100.511 o
-2 -18 2 15.562 5.857 12.363 93.931 o
-2 -18 3 30.628 26.403 12.760 80.637 o
-2 -18 4 37.507 37.292 6.564 192.506 o
-2 -18 5 29.473 15.892 12.576 84.787 o
-2 -18 6 15.632 12.566 12.634 89.090 o
-2 -17 1 71.260 68.048 8.213 101.571 o
-2 -17 2 133.769 170.587 11.626 40.225 o
-2 -17 3 138.151 166.853 11.257 40.654 o
-2 -17 4 37.766 33.132 12.062 84.775 o
-2 -17 5 23.302 13.410 11.529 101.896 o
-2 -17 6 3.371 4.586 11.412 114.898 o
-2 -17 7 12.159 7.030 11.985 100.639 o
-2 -17 8 63.903 62.473 8.407 106.953 o
-2 -16 1 15.171 11.558 10.947 116.491 o
-2 -16 2 5.485 6.564 10.559 131.854 o
-2 -16 3 3.634 5.100 10.210 142.433 o
-2 -16 4 4.988 2.269 10.094 145.683 o
-2 -16 5 5.538 -5.449 10.550 134.054 o
-2 -16 6 0.029 -2.162 10.773 131.749 o
-2 -16 7 10.945 4.935 11.257 114.325 o
-2 -16 8 20.920 14.040 12.120 93.980 o
-2 -16 9 0.009 -7.728 12.528 97.430 o
-2 -15 1 217.028 250.590 12.586 23.055 o
-2 -15 2 260.568 304.802 13.449 17.490 o
-2 -15 3 161.377 178.887 10.569 36.826 o
-2 -15 4 45.507 35.566 5.178 221.367 o
-2 -15 5 35.377 19.082 10.065 118.619 o
-2 -15 6 13.610 7.078 9.910 142.423 o
-2 -15 7 10.730 5.362 10.326 134.535 o
-2 -15 8 19.477 11.994 11.257 108.483 o
-2 -15 9 33.673 23.096 12.072 88.099 o
-2 -15 10 17.077 11.451 12.343 92.720 o
-2 -14 1 283.497 308.720 13.041 16.323 o
-2 -14 2 46.814 39.144 5.430 205.492 o
-2 -14 3 30.736 25.482 4.499 326.835 o
-2 -14 4 11.855 6.632 8.620 185.741 o
-2 -14 5 46.773 44.166 5.992 184.231 o
-2 -14 6 225.159 258.018 12.285 22.311 o
-2 -14 7 166.992 228.522 12.111 29.878 o
-2 -14 8 159.712 188.583 11.490 34.616 o
-2 -14 9 68.959 78.074 7.980 102.100 o
-2 -14 10 28.398 32.095 12.149 87.444 o
-2 -14 11 3.660 -0.776 12.634 94.719 o
-2 -13 1 2.868 2.473 8.038 229.419 o
-2 -13 2 9.272 4.509 7.873 224.994 o
-2 -13 3 15.949 6.341 7.902 210.114 o
-2 -13 4 2.176 2.676 7.864 240.515 o
-2 -13 5 42.858 47.541 5.827 193.318 o
-2 -13 6 131.006 157.487 9.066 49.151 o
-2 -13 7 0.454 -1.067 9.405 172.427 o
-2 -13 8 0.161 -2.841 9.948 154.380 o
-2 -13 9 11.207 5.857 10.249 135.955 o
-2 -13 10 0.457 -0.291 11.005 126.020 o
-2 -13 11 1.174 -5.614 11.946 106.725 o
-2 -12 1 625.028 683.519 17.250 4.408 o
-2 -12 2 52.900 53.979 5.401 177.071 o
-2 -12 3 188.514 167.329 8.717 36.220 o
-2 -12 4 182.341 162.112 8.843 37.614 o
-2 -12 5 147.788 180.147 9.454 41.517 o
-2 -12 6 169.727 193.295 9.706 35.682 o
-2 -12 7 270.297 275.132 11.994 18.587 o
-2 -12 8 123.703 135.244 9.241 53.842 o
-2 -12 9 20.113 10.171 9.657 142.482 o
-2 -12 10 15.587 7.272 10.540 125.877 o
-2 -12 11 2.361 -3.442 11.597 112.728 o
-2 -11 1 97.828 99.144 6.933 83.854 o
-2 -11 2 60.728 50.479 5.091 171.884 o
-2 -11 3 292.597 307.731 10.947 16.753 o
-2 -11 4 699.304 772.201 17.308 3.613 o
-2 -11 5 728.826 839.503 18.627 3.240 o
-2 -11 6 388.537 426.364 13.730 10.012 o
-2 -11 7 195.398 194.439 9.910 31.355 o
-2 -11 8 62.585 63.908 6.341 136.660 o
-2 -11 9 14.628 14.506 9.367 153.332 o
-2 -11 10 52.342 52.311 6.332 159.342 o
-2 -11 11 33.502 31.426 5.866 234.252 o
-2 -11 12 47.501 45.156 6.690 164.531 o
-2 -10 1 23.586 16.425 6.623 245.844 o
-2 -10 2 34.382 41.713 4.800 260.763 o
-2 -10 3 27.144 22.127 3.685 421.004 o
-2 -10 4 25.502 39.018 4.741 304.836 o
-2 -10 5 10.025 5.498 6.671 298.846 o
-2 -10 6 53.195 43.750 5.362 187.755 o
-2 -10 7 0.023 -0.727 7.195 295.345 o
-2 -10 8 0.471 -2.909 7.902 243.964 o
-2 -10 9 8.732 8.087 8.659 187.300 o
-2 -10 10 1.655 -0.204 9.434 170.243 o
-2 -10 11 16.651 10.501 10.646 121.984 o
-2 -10 12 2.221 0.281 11.713 110.519 o
-2 -9 1 64.280 52.641 5.061 163.929 o
-2 -9 2 886.651 949.187 16.891 2.426 o
-2 -9 3 1020.790 1014.920 17.589 1.959 o
-2 -9 4 200.122 238.431 9.308 28.509 o
-2 -9 5 920.837 916.026 17.686 2.360 o
-2 -9 6 257.296 299.595 10.753 19.301 o
-2 -9 7 224.261 226.282 9.793 25.975 o
-2 -9 8 81.201 70.589 6.332 112.590 o
-2 -9 9 71.585 63.705 6.351 125.932 o
-2 -9 10 84.019 62.764 6.904 107.594 o
-2 -9 11 40.397 32.337 11.102 95.608 o
-2 -9 12 15.272 10.976 11.626 104.397 o
-2 -8 1 499.424 482.011 11.471 7.366 o
-2 -8 2 2082.510 2003.950 23.096 0.518 o
-2 -8 3 2363.310 2479.390 25.947 0.383 o
-2 -8 4 870.836 725.659 14.341 2.938 o
-2 -8 5 1667.280 1640.740 22.272 0.780 o
-2 -8 6 416.825 392.951 11.762 10.037 o
-2 -8 7 48.368 37.234 4.780 223.879 o
-2 -8 8 232.098 253.790 10.617 23.187 o
-2 -8 9 82.187 95.537 7.495 91.008 o
-2 -8 10 203.231 228.774 11.539 26.416 o
-2 -8 11 100.906 108.443 8.756 69.047 o
-2 -8 12 1.848 -0.252 11.122 122.725 o
-2 -8 13 3.193 -1.086 12.576 95.728 o
-2 -7 1 2.436 -0.155 4.528 704.585 o
-2 -7 2 62.721 85.822 4.945 141.674 o
-2 -7 3 18.455 26.258 3.403 513.480 o
-2 -7 4 347.567 314.004 9.192 14.353 o
-2 -7 5 104.063 111.507 6.109 81.053 o
-2 -7 6 184.966 143.059 7.146 41.816 o
-2 -7 7 31.007 25.782 3.975 358.451 o
-2 -7 8 10.348 11.054 7.049 263.113 o
-2 -7 9 54.700 45.291 5.449 180.978 o
-2 -7 10 24.666 12.547 8.804 160.483 o
-2 -7 11 0.323 -1.823 9.822 158.236 o
-2 -7 12 17.747 4.198 11.054 115.018 o
-2 -7 13 0.857 -0.436 12.004 105.811 o
-2 -6 1 2663.840 2518.130 22.631 0.326 o
-2 -6 2 2749.350 2496.050 22.544 0.314 o
-2 -6 3 3313.320 3219.780 26.025 0.209 o
-2 -6 4 1009.370 1042.910 15.427 1.971 o
-2 -6 5 523.019 468.863 11.092 7.114 o
-2 -6 6 151.332 149.565 7.020 49.848 o
-2 -6 7 24.037 15.446 6.273 265.145 o
-2 -6 8 569.718 593.043 15.281 5.416 o
-2 -6 9 169.726 165.205 9.318 38.881 o
-2 -6 10 146.625 151.485 9.454 44.951 o
-2 -6 11 58.999 54.386 6.710 141.204 o
-2 -6 12 22.963 13.594 10.899 112.627 o
-2 -6 13 2.002 3.287 11.897 106.668 o
-2 -5 1 3814.450 3679.790 25.249 0.160 o
-2 -5 2 1301.510 1111.710 13.943 1.381 o
-2 -5 3 1344.740 1301.270 15.689 1.201 o
-2 -5 4 736.284 691.238 12.043 3.771 o
-2 -5 5 768.219 772.134 13.517 3.327 o
-2 -5 6 297.019 286.796 9.027 17.865 o
-2 -5 7 1275.790 1322.490 20.614 1.252 o
-2 -5 8 621.547 657.737 15.912 4.597 o
-2 -5 9 500.022 518.014 15.204 6.750 o
-2 -5 10 56.292 55.123 5.789 161.820 o
-2 -5 11 0.154 1.900 9.211 179.074 o
-2 -5 12 2.977 3.898 10.346 139.649 o
-2 -5 13 0.083 -1.212 11.839 109.062 o
-2 -4 1 379.815 417.134 8.135 11.305 o
-2 -4 2 874.453 831.126 11.287 2.748 o
-2 -4 3 8.429 2.182 3.345 951.678 o
-2 -4 4 2.356 4.654 3.743 935.706 o
-2 -4 5 56.952 42.596 3.646 221.822 o
-2 -4 6 74.283 71.510 4.945 135.541 o
-2 -4 7 42.808 35.682 4.305 261.058 o
-2 -4 8 0.880 0.068 6.380 371.579 o
-2 -4 9 1.304 1.716 7.214 287.946 o
-2 -4 10 108.160 101.995 7.738 72.716 o
-2 -4 11 47.223 30.621 10.220 104.683 o
-2 -4 12 0.148 -0.058 10.365 142.228 o
-2 -4 13 1.109 0.155 11.684 111.536 o
-2 -3 1 2189.120 1844.160 15.320 0.514 o
-2 -3 2 7040.270 7203.670 30.146 0.046 o
-2 -3 3 707.442 589.330 9.473 4.394 o
-2 -3 4 3239.010 3218.180 23.736 0.216 o
-2 -3 5 1389.800 1307.820 16.648 1.146 o
-2 -3 6 1146.130 1088.630 16.532 1.634 o
-2 -3 7 1878.740 1824.130 23.853 0.626 o
-2 -3 8 375.235 382.925 12.023 11.343 o
-2 -3 9 166.557 163.925 8.639 40.915 o
-2 -3 10 198.829 205.096 10.336 29.657 o
-2 -3 11 0.185 -2.599 9.396 173.037 o
-2 -3 12 4.218 1.561 10.491 135.843 o
-2 -3 13 2.328 1.959 11.839 107.835 o
-2 -2 1 2740.630 2703.400 16.697 0.302 o
-2 -2 2 2184.640 2021.800 15.194 0.488 o
-2 -2 3 2292.650 2424.990 18.045 0.407 o
-2 -2 4 695.996 573.748 9.861 4.541 o
-2 -2 5 847.333 741.736 12.411 3.036 o
-2 -2 6 1192.540 1185.330 17.114 1.474 o
-2 -2 7 1037.000 1023.960 17.502 1.912 o
-2 -2 8 140.582 143.602 7.612 52.485 o
-2 -2 9 0.330 -1.328 7.282 287.499 o
-2 -2 10 35.826 25.375 8.979 137.829 o
-2 -2 11 0.251 -2.909 9.347 174.771 o
-2 -2 12 18.081 12.819 11.025 113.142 o
-2 -2 13 21.513 11.703 12.411 90.229 o
-2 -1 1 278.163 319.880 5.818 19.083 o
-2 -1 2 205.090 195.041 5.168 34.893 o
-2 -1 3 653.805 577.074 8.814 4.929 o
-2 -1 4 43.990 43.546 3.219 279.282 o
-2 -1 5 78.270 83.766 4.654 125.687 o
-2 -1 6 56.729 60.243 4.451 182.632 o
-2 -1 7 10.336 4.034 5.381 432.077 o
-2 -1 8 125.846 114.164 6.836 65.858 o
-2 -1 9 184.095 183.521 9.231 34.831 o
-2 -1 10 16.937 8.688 8.368 187.280 o
-2 -1 11 0.150 -3.762 9.396 173.071 o
-2 -1 12 0.111 -0.271 10.743 132.418 o
-2 -1 13 0.863 1.551 12.285 100.780 o
-2 0 1 2800.010 3057.690 14.981 0.271 o
-2 0 2 5147.950 5132.630 21.758 0.087 o
-2 0 3 4903.630 4818.000 24.396 0.096 o
-2 0 4 1584.980 1439.440 15.359 0.915 o
-2 0 5 5684.220 5743.360 34.286 0.070 o
-2 0 6 1112.410 1057.330 16.338 1.728 o
-2 0 7 824.501 855.958 16.309 2.827 o
-2 0 8 663.233 694.331 16.173 4.129 o
-2 0 9 191.245 215.994 10.104 30.213 o
-2 0 10 53.300 46.872 5.750 175.173 o
-2 0 11 14.464 13.226 9.561 148.592 o
-2 0 12 37.885 33.132 11.703 88.932 o
-2 0 13 22.503 15.097 12.760 84.948 o
-2 1 1 155.298 102.150 3.578 64.789 o
-2 1 2 8487.480 9782.850 80.547 0.029 o
-2 1 3 784.038 644.249 9.299 3.675 o
-2 1 4 1882.390 1762.710 17.327 0.644 o
-2 1 5 2375.330 2486.020 22.903 0.381 o
-2 1 6 430.901 421.468 10.569 9.478 o
-2 1 7 23.856 20.459 3.481 477.825 o
-2 1 8 130.602 135.981 7.902 56.057 o
-2 1 9 8.056 9.241 7.476 244.665 o
-2 1 10 10.739 7.263 8.445 193.830 o
-2 1 11 42.204 29.612 10.414 105.105 o
-2 1 12 47.499 36.982 6.225 183.489 o
-2 2 1 5688.450 5863.130 22.030 0.070 o
-2 2 2 4532.380 4661.990 22.379 0.109 o
-2 2 3 16.042 37.059 3.132 509.281 o
-2 2 4 278.757 258.474 7.059 20.975 o
-2 2 5 0.248 -0.175 4.276 830.814 o
-2 2 6 345.908 332.582 9.764 13.872 o
-2 2 7 803.869 884.038 17.172 2.838 o
-2 2 8 30.776 27.673 4.470 322.842 o
-2 2 9 59.183 50.101 5.411 168.723 o
-2 2 10 1.914 1.910 8.513 206.940 o
-2 2 11 0.099 2.172 9.958 153.307 o
-2 2 12 0.956 -1.251 11.616 112.932 o
-2 3 1 2867.910 2652.210 16.445 0.288 o
-2 3 2 3307.370 2948.710 19.082 0.222 o
-2 3 3 7082.910 7022.250 33.132 0.046 o
-2 3 4 787.118 663.244 11.529 3.560 o
-2 3 5 2646.460 2639.090 25.104 0.318 o
-2 3 6 698.584 662.032 13.905 4.069 o
-2 3 7 1142.660 1214.860 20.508 1.510 o
-2 3 8 94.310 86.210 6.506 93.492 o
-2 3 9 169.071 189.872 9.716 36.068 o
-2 3 10 85.046 89.186 7.767 89.020 o
-2 3 11 113.485 116.995 9.396 59.454 o
-2 3 12 50.822 50.498 7.272 143.580 o
-2 4 1 7519.560 7031.520 29.128 0.043 o
-2 4 2 723.896 607.898 9.541 4.196 o
-2 4 3 2751.430 2436.630 20.905 0.319 o
-2 4 4 1377.830 1251.740 16.513 1.190 o
-2 4 5 5.406 -2.007 4.654 627.533 o
-2 4 6 630.534 589.931 13.740 4.910 o
-2 4 7 134.686 135.777 7.553 55.820 o
-2 4 8 151.702 148.915 8.513 46.332 o
-2 4 9 74.769 64.820 6.477 120.277 o
-2 4 10 124.247 126.604 9.027 55.780 o
-2 4 11 39.598 29.254 11.626 89.974 o
-2 4 12 5.612 4.577 12.062 102.277 o
-2 5 1 1543.360 1363.070 14.370 0.980 o
-2 5 2 1970.640 2003.530 18.413 0.559 o
-2 5 3 0.946 2.434 3.840 967.453 o
-2 5 4 361.223 359.227 9.221 12.816 o
-2 5 5 639.295 582.232 12.877 4.901 o
-2 5 6 66.635 74.884 5.866 131.601 o
-2 5 7 146.315 151.688 8.087 48.417 o
-2 5 8 30.177 23.164 8.096 168.331 o
-2 5 9 18.138 15.049 8.882 164.012 o
-2 5 10 4.152 5.401 9.735 155.668 o
-2 5 11 4.468 3.287 11.083 121.454 o
-2 6 1 3477.030 3291.620 23.940 0.194 o
-2 6 2 2171.390 1996.580 19.965 0.493 o
-2 6 3 544.094 434.121 9.987 7.131 o
-2 6 4 2092.590 1868.080 22.311 0.537 o
-2 6 5 2580.960 2561.940 27.954 0.334 o
-2 6 6 474.740 476.203 13.206 7.686 o
-2 6 7 775.300 834.704 18.539 3.037 o
-2 6 8 128.630 115.454 8.106 59.618 o
-2 6 9 168.453 186.227 10.424 35.289 o
-2 6 10 102.510 103.440 8.901 68.635 o
-2 6 11 17.216 13.963 11.791 100.306 o
-2 7 1 2571.910 2316.990 21.720 0.360 o
-2 7 2 538.632 492.619 10.637 6.720 o
-2 7 3 762.791 682.850 13.177 3.611 o
-2 7 4 545.756 518.896 12.566 6.310 o
-2 7 5 532.336 567.474 14.137 6.064 o
-2 7 6 99.160 95.101 6.574 86.592 o
-2 7 7 119.115 116.491 7.873 63.995 o
-2 7 8 78.885 75.049 6.787 107.918 o
-2 7 9 99.893 82.224 7.951 80.874 o
-2 7 10 32.452 23.804 11.500 95.907 o
-2 7 11 3.053 1.357 12.033 104.273 o
-2 8 1 10.651 14.787 2.802 871.684 o
-2 8 2 489.642 494.675 11.383 7.432 o
-2 8 3 353.679 334.444 10.007 13.445 o
-2 8 4 277.336 290.432 10.016 18.613 o
-2 8 5 214.736 210.021 9.105 28.658 o
-2 8 6 0.773 1.619 7.059 302.182 o
-2 8 7 104.146 81.788 6.846 85.899 o
-2 8 8 3.674 1.862 8.969 184.814 o
-2 8 9 7.356 2.434 10.317 138.000 o
-2 8 10 9.924 1.930 11.422 112.361 o
-2 9 1 1292.110 1257.330 18.219 1.281 o
-2 9 2 1728.040 1730.530 22.747 0.720 o
-2 9 3 2313.440 2418.510 28.342 0.398 o
-2 9 4 816.987 868.844 17.647 2.807 o
-2 9 5 539.010 601.906 15.524 5.688 o
-2 9 6 360.973 403.375 13.604 11.134 o
-2 9 7 224.565 244.918 11.703 23.400 o
-2 9 8 177.330 182.823 10.724 33.670 o
-2 9 9 59.214 47.163 6.429 150.964 o
-2 9 10 33.854 17.705 12.518 83.706 o
-2 10 1 27.145 24.590 3.733 407.173 o
-2 10 2 52.008 56.141 5.013 185.357 o
-2 10 3 610.765 654.314 15.475 4.722 o
-2 10 4 102.642 108.133 7.224 76.774 o
-2 10 5 229.912 239.488 10.443 24.190 o
-2 10 6 134.259 134.701 8.630 52.773 o
-2 10 7 50.726 38.688 5.585 192.677 o
-2 10 8 71.037 53.931 7.301 118.909 o
-2 10 9 1.654 3.326 11.316 117.913 o
-2 11 1 87.404 90.398 6.390 98.042 o
-2 11 2 22.367 17.657 7.127 222.486 o
-2 11 3 4.961 5.653 7.098 281.462 o
-2 11 4 26.054 23.814 4.460 360.088 o
-2 11 5 35.434 25.365 8.930 139.300 o
-2 11 6 38.181 25.414 4.645 284.589 o
-2 11 7 8.386 2.783 9.822 150.659 o
-2 11 8 5.961 4.131 10.937 123.611 o
-2 11 9 16.064 8.484 12.285 94.412 o
-2 12 1 1241.470 1367.150 23.048 1.255 o
-2 12 2 923.435 1073.810 21.138 2.088 o
-2 12 3 709.164 805.275 18.801 3.423 o
-2 12 4 277.396 307.430 12.314 17.026 o
-2 12 5 273.763 300.672 12.838 17.171 o
-2 12 6 143.986 141.536 9.764 45.944 o
-2 12 7 48.851 40.307 6.846 162.525 o
-2 12 8 36.788 33.026 12.460 80.777 o
-2 13 1 190.551 208.208 10.045 30.901 o
-2 13 2 101.697 94.781 7.340 80.297 o
-2 13 3 43.455 39.571 5.275 218.298 o
-2 13 4 72.746 74.128 6.952 112.072 o
-2 13 5 45.388 44.060 6.293 178.994 o
-2 13 6 41.200 31.658 5.391 231.275 o
-2 13 7 4.996 2.802 11.354 115.718 o
-2 14 1 0.200 -0.669 8.077 234.041 o
-2 14 2 17.990 12.712 8.688 171.819 o
-2 14 3 2.249 -0.960 9.241 176.790 o
-2 14 4 32.171 20.973 10.297 115.860 o
-2 14 5 18.882 11.965 10.676 119.639 o
-2 14 6 6.267 3.655 11.199 118.045 o
-2 14 7 17.018 12.305 12.508 90.351 o
-2 15 1 228.668 279.660 12.644 20.912 o
-2 15 2 119.768 122.609 8.930 58.285 o
-2 15 3 179.864 220.532 11.800 29.219 o
-2 15 4 128.458 133.876 9.958 50.250 o
-2 15 5 58.379 47.221 6.661 147.653 o
-2 15 6 26.867 21.904 12.731 82.854 o
-2 16 1 68.385 62.182 7.049 120.846 o
-2 16 2 52.956 48.452 6.273 162.669 o
-2 16 3 43.724 41.413 6.089 190.378 o
-2 16 4 17.615 13.749 11.868 98.996 o
-2 16 5 1.917 -0.271 11.985 105.769 o
-2 17 1 35.263 24.153 11.325 96.968 o
-2 17 2 29.110 19.499 11.713 95.330 o
-2 17 3 37.744 25.191 12.547 80.837 o
-2 17 4 25.652 11.509 12.624 86.168 o
-2 18 1 72.581 61.843 7.825 107.392 o
-2 18 2 56.233 49.645 7.127 140.175 o
-2 19 1 4.591 3.025 12.615 94.272 o
-1 -19 3 34.195 26.587 13.449 72.672 o
-1 -19 4 29.561 22.398 13.274 76.163 o
-1 -18 1 18.071 17.725 12.120 94.356 o
-1 -18 2 19.097 18.559 11.975 95.879 o
-1 -18 3 49.884 52.486 7.156 145.808 o
-1 -18 4 35.103 32.492 6.002 223.088 o
-1 -18 5 18.895 8.339 12.169 95.094 o
-1 -18 6 3.921 6.264 12.111 101.784 o
-1 -18 7 0.033 0.107 12.295 101.128 o
-1 -17 1 2.906 0.271 10.879 127.576 o
-1 -17 2 11.821 7.699 11.102 116.223 o
-1 -17 3 35.248 27.033 11.180 98.332 o
-1 -17 4 51.607 41.810 6.293 169.979 o
-1 -17 5 69.966 32.395 12.111 72.847 o
-1 -17 6 41.714 30.311 12.004 84.473 o
-1 -17 7 5.071 -0.320 11.548 112.521 o
-1 -17 8 0.679 -4.189 12.266 101.413 o
-1 -16 1 135.035 162.151 10.453 43.803 o
-1 -16 2 210.968 244.036 12.595 23.865 o
-1 -16 3 220.141 242.135 12.440 23.279 o
-1 -16 4 144.508 116.927 9.066 51.016 o
-1 -16 5 86.643 80.392 8.019 88.738 o
-1 -16 6 37.589 45.689 6.186 195.718 o
-1 -16 7 27.630 27.227 11.548 96.610 o
-1 -16 8 13.081 15.446 11.645 104.057 o
-1 -16 9 22.137 19.732 12.440 88.266 o
-1 -15 1 197.137 190.066 10.966 30.055 o
-1 -15 2 55.514 44.409 6.196 163.482 o
-1 -15 3 16.238 12.615 9.231 156.658 o
-1 -15 4 6.922 2.889 9.192 172.289 o
-1 -15 5 6.346 0.834 9.211 173.247 o
-1 -15 6 17.659 18.326 9.861 136.133 o
-1 -15 7 27.612 15.592 10.598 114.876 o
-1 -15 8 13.414 16.658 10.724 120.484 o
-1 -15 9 9.587 2.938 11.257 115.455 o
-1 -15 10 10.553 10.385 12.237 96.726 o
-1 -14 1 170.455 154.714 9.716 38.995 o
-1 -14 2 199.616 193.382 10.404 30.232 o
-1 -14 3 171.230 137.115 8.814 42.450 o
-1 -14 4 101.740 82.826 6.826 87.249 o
-1 -14 5 31.234 13.536 8.979 148.145 o
-1 -14 6 0.774 0.000 8.921 191.249 o
-1 -14 7 3.682 2.250 9.153 177.432 o
-1 -14 8 29.349 13.197 10.346 119.273 o
-1 -14 9 32.088 12.402 11.412 99.911 o
-1 -14 10 15.990 10.007 11.461 107.076 o
-1 -14 11 11.502 8.019 12.440 93.824 o
-1 -13 1 762.645 870.105 19.683 2.989 o
-1 -13 2 317.331 339.243 12.450 14.200 o
-1 -13 3 359.298 408.717 13.526 11.121 o
-1 -13 4 361.932 439.348 14.079 10.485 o
-1 -13 5 128.004 158.398 8.901 50.326 o
-1 -13 6 202.270 246.334 11.199 25.940 o
-1 -13 7 99.191 104.875 8.067 74.563 o
-1 -13 8 270.480 305.568 13.488 16.892 o
-1 -13 9 70.328 64.994 7.156 116.167 o
-1 -13 10 24.902 24.018 11.325 101.876 o
-1 -13 11 0.889 -0.553 11.897 107.699 o
-1 -12 1 145.020 107.764 7.621 56.861 o
-1 -12 2 82.960 81.381 6.593 103.574 o
-1 -12 3 31.788 29.874 4.266 324.186 o
-1 -12 4 23.938 31.154 4.548 344.763 o
-1 -12 5 175.999 177.519 9.027 37.064 o
-1 -12 6 65.304 67.981 6.467 129.064 o
-1 -12 7 44.715 38.058 5.362 214.146 o
-1 -12 8 26.746 20.411 9.367 139.523 o
-1 -12 9 1.904 3.801 9.493 166.214 o
-1 -12 10 0.219 -4.557 10.453 139.820 o
-1 -12 11 2.750 -0.853 11.577 112.941 o
-1 -11 1 1076.440 1022.040 19.189 1.815 o
-1 -11 2 273.219 256.166 9.890 20.171 o
-1 -11 3 542.319 474.846 13.342 6.607 o
-1 -11 4 81.778 77.017 6.235 109.986 o
-1 -11 5 0.808 2.928 6.623 339.992 o
-1 -11 6 297.806 258.958 10.734 17.982 o
-1 -11 7 238.417 227.319 10.550 23.875 o
-1 -11 8 139.626 128.359 8.494 52.534 o
-1 -11 9 27.390 15.117 9.328 142.266 o
-1 -11 10 17.356 10.986 10.055 134.498 o
-1 -11 11 0.314 -0.921 10.831 130.184 o
-1 -11 12 0.768 2.414 11.839 108.344 o
-1 -10 1 824.788 902.704 16.872 2.724 o
-1 -10 2 937.644 1002.390 17.647 2.186 o
-1 -10 3 636.003 699.450 14.952 4.355 o
-1 -10 4 572.238 640.894 14.612 5.182 o
-1 -10 5 100.936 109.054 6.758 80.085 o
-1 -10 6 880.711 845.554 18.151 2.603 o
-1 -10 7 197.847 183.192 9.260 32.650 o
-1 -10 8 130.686 136.107 8.513 54.023 o
-1 -10 9 18.739 14.525 8.833 165.153 o
-1 -10 10 14.375 7.185 9.657 148.586 o
-1 -10 11 19.309 16.842 10.743 116.647 o
-1 -10 12 15.397 11.374 12.033 97.831 o
-1 -9 1 118.519 122.910 6.400 68.918 o
-1 -9 2 243.900 312.501 9.454 20.486 o
-1 -9 3 451.676 411.510 11.102 9.038 o
-1 -9 4 199.203 191.666 8.019 33.309 o
-1 -9 5 182.193 157.070 7.689 40.018 o
-1 -9 6 542.777 502.655 13.420 6.401 o
-1 -9 7 95.432 114.368 7.369 78.156 o
-1 -9 8 52.631 50.498 5.575 177.020 o
-1 -9 9 10.121 7.466 8.387 197.005 o
-1 -9 10 10.109 6.787 9.037 172.315 o
-1 -9 11 42.453 29.166 5.798 216.344 o
-1 -9 12 0.834 -0.039 11.325 118.842 o
-1 -8 1 2035.400 1995.300 22.040 0.535 o
-1 -8 2 487.162 498.931 10.986 7.470 o
-1 -8 3 268.766 247.371 8.116 21.797 o
-1 -8 4 194.555 186.236 7.447 35.214 o
-1 -8 5 974.481 880.489 16.144 2.271 o
-1 -8 6 1067.430 1016.390 18.374 1.847 o
-1 -8 7 258.312 216.469 9.570 23.245 o
-1 -8 8 336.872 344.315 12.275 13.334 o
-1 -8 9 16.470 15.097 8.048 195.837 o
-1 -8 10 2.671 4.703 8.688 196.073 o
-1 -8 11 15.438 7.447 10.259 132.286 o
-1 -8 12 26.444 19.257 11.626 97.762 o
-1 -7 1 1632.550 1647.250 18.733 0.805 o
-1 -7 2 867.398 683.364 11.956 3.085 o
-1 -7 3 248.957 257.184 7.864 23.271 o
-1 -7 4 2900.540 2503.500 24.599 0.291 o
-1 -7 5 1618.240 1513.750 20.411 0.855 o
-1 -7 6 988.817 944.795 17.046 2.132 o
-1 -7 7 1.343 -0.281 6.322 376.407 o
-1 -7 8 102.489 108.133 7.214 76.910 o
-1 -7 9 23.278 20.314 8.087 180.243 o
-1 -7 10 72.677 65.857 6.623 120.112 o
-1 -7 11 98.920 108.763 8.765 69.785 o
-1 -7 12 55.392 40.734 6.487 160.277 o
-1 -7 13 37.462 22.466 13.187 74.825 o
-1 -6 1 630.396 600.413 10.482 4.988 o
-1 -6 2 3337.450 3431.730 25.007 0.199 o
-1 -6 3 339.130 435.527 9.493 12.165 o
-1 -6 4 2214.450 2081.620 21.448 0.468 o
-1 -6 5 214.671 180.835 7.098 32.711 o
-1 -6 6 0.697 -0.407 5.061 589.078 o
-1 -6 7 196.328 196.233 8.436 32.910 o
-1 -6 8 3.512 1.571 6.516 342.899 o
-1 -6 9 177.643 166.398 8.765 38.223 o
-1 -6 10 47.552 39.328 5.507 201.241 o
-1 -6 11 1.543 -2.172 9.842 156.648 o
-1 -6 12 0.734 2.531 10.918 127.231 o
-1 -6 13 0.271 -4.489 12.460 98.414 o
-1 -5 1 586.813 492.037 8.833 6.147 o
-1 -5 2 704.416 777.583 11.063 3.722 o
-1 -5 3 4002.790 3609.130 24.619 0.151 o
-1 -5 4 764.862 694.146 11.713 3.596 o
-1 -5 5 757.497 655.429 12.334 3.744 o
-1 -5 6 625.626 611.350 12.906 4.891 o
-1 -5 7 31.161 31.174 3.801 352.087 o
-1 -5 8 132.890 124.442 7.049 60.114 o
-1 -5 9 40.292 31.814 4.451 272.151 o
-1 -5 10 135.011 113.854 8.339 56.818 o
-1 -5 11 260.953 293.700 13.701 17.650 o
-1 -5 12 39.157 25.870 11.597 91.243 o
-1 -5 13 8.019 6.370 12.082 100.759 o
-1 -4 1 39.706 34.829 3.617 304.558 o
-1 -4 2 3393.230 2947.670 19.577 0.215 o
-1 -4 3 3365.640 2910.530 20.944 0.218 o
-1 -4 4 3530.550 3002.950 23.281 0.201 o
-1 -4 5 1174.630 1050.280 14.981 1.626 o
-1 -4 6 235.644 229.007 7.941 26.033 o
-1 -4 7 803.857 751.839 15.262 3.166 o
-1 -4 8 257.936 239.740 9.754 22.126 o
-1 -4 9 435.349 436.778 13.788 8.773 o
-1 -4 10 284.145 323.361 13.488 15.718 o
-1 -4 11 184.442 180.089 10.996 32.406 o
-1 -4 12 17.496 10.123 11.083 113.069 o
-1 -4 13 4.424 3.161 11.946 104.937 o
-1 -3 1 1577.970 1675.940 12.867 0.839 o
-1 -3 2 3229.200 2985.420 18.055 0.228 o
-1 -3 3 893.595 731.438 10.084 2.886 o
-1 -3 4 620.658 564.546 9.803 5.288 o
-1 -3 5 21.554 11.209 3.975 491.616 o
-1 -3 6 4.677 2.473 4.344 700.222 o
-1 -3 7 74.820 54.115 4.654 151.299 o
-1 -3 8 35.386 29.215 3.917 326.669 o
-1 -3 9 0.794 -1.086 7.340 281.793 o
-1 -3 10 0.009 -1.076 8.756 199.448 o
-1 -3 11 3.462 -1.047 9.716 159.105 o
-1 -3 12 0.969 0.310 10.550 136.721 o
-1 -3 13 1.517 0.029 12.120 103.562 o
-1 -2 1 11499.500 13209.200 81.478 0.016 o
-1 -2 2 31.646 15.640 2.637 499.828 o
-1 -2 3 4129.870 3679.830 21.148 0.144 o
-1 -2 4 2356.800 2086.860 18.297 0.432 o
-1 -2 5 458.158 395.860 9.008 9.301 o
-1 -2 6 422.978 415.951 10.356 9.774 o
-1 -2 7 90.104 72.557 5.207 113.628 o
-1 -2 8 343.597 322.246 11.180 13.821 o
-1 -2 9 421.458 449.849 14.137 8.883 o
-1 -2 10 233.869 245.577 11.936 22.380 o
-1 -2 11 18.664 15.970 9.677 140.783 o
-1 -2 12 0.826 -0.562 10.714 132.735 o
-1 -2 13 7.697 6.332 12.256 98.134 o
-1 -1 2 9119.430 9778.920 73.430 0.026 o
-1 -1 3 1768.300 1558.570 13.672 0.757 o
-1 -1 4 626.375 504.662 9.085 5.578 o
-1 -1 5 642.968 554.297 10.627 5.085 o
-1 -1 6 940.606 908.027 14.990 2.343 o
-1 -1 7 1233.480 1180.180 19.228 1.407 o
-1 -1 8 710.103 693.186 16.241 3.818 o
-1 -1 9 1000.220 1022.600 21.739 1.957 o
-1 -1 10 122.006 123.046 8.601 58.733 o
-1 -1 11 34.873 21.215 10.074 118.056 o
-1 -1 12 7.824 5.362 10.908 122.916 o
-1 0 2 523.689 551.029 7.059 6.694 o
-1 0 3 138.252 105.078 4.257 70.831 o
-1 0 4 268.625 260.607 6.613 21.927 o
-1 0 5 767.222 773.045 12.615 3.347 o
-1 0 6 44.221 26.713 3.297 316.137 o
-1 0 7 131.676 113.223 6.681 64.131 o
-1 0 8 15.831 8.746 6.894 261.373 o
-1 0 9 141.802 125.121 8.252 53.105 o
-1 0 10 4.198 -4.645 8.843 190.461 o
-1 0 11 3.070 1.716 9.502 165.769 o
-1 0 12 6.663 4.063 11.005 121.793 o
-1 1 2 73.895 47.182 3.093 181.366 o
-1 1 3 4056.280 3896.870 22.049 0.142 o
-1 1 4 108.163 85.094 4.092 98.340 o
-1 1 5 1438.760 1535.880 18.142 0.988 o
-1 1 6 760.838 750.152 14.331 3.408 o
-1 1 7 1453.310 1558.820 22.738 0.955 o
-1 1 8 796.371 936.767 19.489 2.721 o
-1 1 9 94.815 120.903 8.019 73.062 o
-1 1 10 12.957 8.969 8.736 178.511 o
-1 1 11 7.178 5.866 9.880 148.714 o
-1 1 12 3.676 1.057 11.539 113.077 o
-1 2 1 1264.770 1067.660 8.804 1.484 o
-1 2 2 3839.580 3472.470 18.762 0.164 o
-1 2 3 62.395 49.005 3.423 202.051 o
-1 2 4 2781.930 2538.010 21.477 0.307 o
-1 2 5 1839.380 1751.120 20.168 0.664 o
-1 2 6 1705.160 1794.620 22.592 0.716 o
-1 2 7 1653.100 1768.020 24.997 0.747 o
-1 2 8 344.910 379.357 12.877 12.219 o
-1 2 9 49.238 41.005 5.217 203.642 o
-1 2 10 2.830 0.824 8.853 191.205 o
-1 2 11 37.422 33.016 5.488 236.432 o
-1 2 12 26.574 28.139 12.421 85.540 o
-1 3 1 1670.570 1522.550 12.169 0.830 o
-1 3 2 550.297 509.597 8.203 6.557 o
-1 3 3 449.277 424.076 8.378 9.236 o
-1 3 4 698.872 632.207 11.257 4.250 o
-1 3 5 85.861 60.156 4.499 132.597 o
-1 3 6 60.842 56.025 5.013 167.964 o
-1 3 7 214.364 198.153 8.969 29.605 o
-1 3 8 2.770 1.997 6.913 307.892 o
-1 3 9 15.380 13.749 8.426 183.744 o
-1 3 10 16.512 16.561 9.551 145.608 o
-1 3 11 9.636 4.509 10.734 125.969 o
-1 3 12 0.355 -1.493 12.266 101.520 o
-1 4 1 1831.710 1644.990 14.157 0.699 o
-1 4 2 785.225 751.238 10.588 3.345 o
-1 4 3 2499.940 2349.000 20.566 0.371 o
-1 4 4 2432.910 2314.360 22.864 0.387 o
-1 4 5 2632.370 2637.410 26.568 0.320 o
-1 4 6 2065.330 2130.000 26.500 0.500 o
-1 4 7 17.999 13.206 6.729 259.349 o
-1 4 8 82.664 86.588 6.768 100.105 o
-1 4 9 15.583 9.338 8.649 178.196 o
-1 4 10 27.944 25.782 10.239 118.113 o
-1 4 11 46.495 31.658 5.924 199.765 o
-1 5 1 1140.900 1048.130 12.576 1.702 o
-1 5 2 3572.530 3273.980 23.562 0.187 o
-1 5 3 1574.780 1351.510 16.736 0.955 o
-1 5 4 2467.490 2247.620 23.581 0.386 o
-1 5 5 1698.860 1669.330 22.127 0.754 o
-1 5 6 694.203 757.705 16.212 3.718 o
-1 5 7 118.223 123.850 7.408 64.775 o
-1 5 8 22.018 18.636 8.135 181.578 o
-1 5 9 73.826 63.530 6.332 123.791 o
-1 5 10 64.345 56.840 6.749 132.504 o
-1 5 11 25.028 19.305 12.053 92.364 o
-1 6 1 78.599 70.065 4.043 140.574 o
-1 6 2 622.761 562.839 10.666 5.243 o
-1 6 3 51.592 53.756 4.228 207.418 o
-1 6 4 13.943 8.009 5.459 387.775 o
-1 6 5 42.741 29.380 4.654 258.987 o
-1 6 6 48.138 34.393 4.383 241.847 o
-1 6 7 0.519 1.115 7.059 303.677 o
-1 6 8 0.556 -2.938 8.106 231.757 o
-1 6 9 7.277 2.822 9.367 165.913 o
-1 6 10 0.093 0.814 10.705 133.159 o
-1 6 11 1.460 -2.463 12.402 98.964 o
-1 7 1 1217.560 1125.690 15.213 1.490 o
-1 7 2 3025.860 2877.800 25.734 0.253 o
-1 7 3 2495.570 2361.490 25.065 0.369 o
-1 7 4 3561.700 3579.140 33.471 0.177 o
-1 7 5 165.359 175.086 8.339 40.549 o
-1 7 6 27.341 27.256 4.092 368.827 o
-1 7 7 69.077 68.960 5.983 130.685 o
-1 7 8 28.984 20.130 9.066 144.894 o
-1 7 9 77.618 50.779 6.535 123.983 o
-1 7 10 64.648 54.736 7.738 118.568 o
-1 8 1 3993.160 3899.190 30.534 0.144 o
-1 8 2 1889.080 1744.640 21.497 0.641 o
-1 8 3 2076.560 2187.910 25.453 0.489 o
-1 8 4 1020.720 1110.860 19.247 1.838 o
-1 8 5 4.667 -0.543 6.564 336.685 o
-1 8 6 107.229 126.391 7.650 67.918 o
-1 8 7 50.910 49.083 5.847 175.303 o
-1 8 8 140.549 156.352 9.851 44.785 o
-1 8 9 108.315 92.279 9.270 66.542 o
-1 8 10 27.377 10.065 12.363 89.116 o
-1 9 1 0.010 2.046 5.352 524.543 o
-1 9 2 273.964 244.142 9.328 20.873 o
-1 9 3 76.065 57.480 5.672 133.257 o
-1 9 4 8.939 9.483 6.497 309.674 o
-1 9 5 8.076 4.819 7.001 281.027 o
-1 9 6 45.535 23.475 8.523 139.146 o
-1 9 7 0.012 -0.058 8.998 188.843 o
-1 9 8 0.332 0.688 10.084 149.885 o
-1 9 9 5.614 6.923 11.316 115.248 o
-1 10 1 3276.480 3290.620 32.095 0.208 o
-1 10 2 1652.410 1719.540 24.512 0.762 o
-1 10 3 201.390 200.083 9.076 31.126 o
-1 10 4 0.755 1.648 6.720 332.960 o
-1 10 5 2.445 2.230 7.612 256.139 o
-1 10 6 172.017 188.719 10.074 35.085 o
-1 10 7 140.834 134.720 9.405 48.583 o
-1 10 8 156.364 160.677 11.306 37.793 o
-1 10 9 72.472 75.185 8.426 95.935 o
-1 11 1 496.722 500.686 13.837 7.054 o
-1 11 2 620.458 692.178 16.416 4.445 o
-1 11 3 20.852 17.017 7.495 209.740 o
-1 11 4 116.639 124.093 7.718 64.106 o
-1 11 5 168.533 173.893 9.657 37.674 o
-1 11 6 232.388 248.380 12.256 22.136 o
-1 11 7 122.967 114.290 9.638 55.802 o
-1 11 8 37.648 26.607 12.431 81.889 o
-1 12 1 1.568 0.834 7.127 295.398 o
-1 12 2 31.415 18.733 7.961 173.857 o
-1 12 3 7.819 2.405 7.757 236.046 o
-1 12 4 7.963 1.900 8.281 209.125 o
-1 12 5 3.814 -4.218 9.628 161.644 o
-1 12 6 10.376 3.132 10.346 135.033 o
-1 12 7 12.838 12.469 11.558 106.273 o
-1 12 8 9.740 5.071 12.285 97.202 o
-1 13 1 402.161 426.529 13.740 9.663 o
-1 13 2 3.827 -0.116 7.922 236.509 o
-1 13 3 35.109 26.160 9.153 134.298 o
-1 13 4 94.048 107.638 8.096 76.278 o
-1 13 5 192.163 214.171 11.994 27.908 o
-1 13 6 166.581 179.274 11.956 33.460 o
-1 13 7 68.205 73.207 8.678 96.848 o
-1 14 1 46.502 38.417 5.595 202.146 o
-1 14 2 13.120 14.118 8.824 172.166 o
-1 14 3 74.304 79.286 7.301 104.664 o
-1 14 4 227.885 256.117 13.022 21.582 o
-1 14 5 100.781 93.831 9.357 68.805 o
-1 14 6 52.561 34.713 12.828 71.926 o
-1 15 1 0.871 -0.320 8.824 195.337 o
-1 15 2 3.204 1.590 9.367 170.434 o
-1 15 3 1.208 -7.272 10.530 137.172 o
-1 15 4 9.344 5.071 11.141 117.363 o
-1 15 5 11.295 4.460 12.082 99.909 o
-1 16 1 32.745 23.446 10.676 108.260 o
-1 16 2 56.007 55.007 7.020 139.093 o
-1 16 3 161.820 184.074 12.101 33.543 o
-1 16 4 173.139 185.441 12.634 31.022 o
-1 17 1 73.632 91.533 8.862 86.073 o
-1 17 2 98.701 116.530 10.104 61.305 o
-1 17 3 82.703 90.049 9.570 76.193 o
-1 18 1 6.289 -6.584 12.479 96.236 o
-1 18 2 8.689 -2.211 13.303 84.291 o
0 -19 1 0.740 -7.815 12.634 95.579 o
0 -19 2 1.320 -3.287 12.169 102.814 o
0 -19 3 0.216 1.193 11.791 109.680 o
0 -19 4 0.250 -2.666 12.305 100.916 o
0 -19 5 1.017 0.213 12.353 99.846 o
0 -18 1 0.338 -0.582 11.345 118.660 o
0 -18 2 5.565 3.908 11.102 120.338 o
0 -18 3 31.757 24.047 11.694 93.518 o
0 -18 4 36.151 19.499 12.111 87.371 o
0 -18 5 77.003 50.178 6.981 119.114 o
0 -18 6 62.188 69.687 8.281 107.053 o
0 -18 7 24.345 20.682 12.789 83.166 o
0 -17 1 0.109 2.986 10.365 141.291 o
0 -17 2 64.649 45.553 6.865 136.999 o
0 -17 3 147.211 162.917 10.511 41.044 o
0 -17 4 128.768 133.430 10.065 49.877 o
0 -17 5 88.061 87.664 8.552 81.602 o
0 -17 6 21.782 26.723 11.529 99.601 o
0 -17 7 4.509 6.729 11.141 119.351 o
0 -17 8 3.485 4.664 11.878 106.186 o
0 -16 1 7.978 4.266 9.405 163.264 o
0 -16 2 0.974 -3.743 9.880 155.874 o
0 -16 3 3.247 0.766 9.522 165.378 o
0 -16 4 3.163 -2.143 9.832 155.665 o
0 -16 5 17.845 8.242 9.803 141.399 o
0 -16 6 1.980 5.168 10.007 149.321 o
0 -16 7 0.144 0.281 10.356 142.406 o
0 -16 8 0.368 0.048 10.879 128.987 o
0 -16 9 9.901 5.061 11.636 107.791 o
0 -15 1 184.483 180.661 11.083 32.228 o
0 -15 2 392.959 395.588 14.903 10.075 o
0 -15 3 338.755 348.523 13.614 12.794 o
0 -15 4 311.170 322.915 13.235 14.559 o
0 -15 5 106.688 136.902 9.144 59.449 o
0 -15 6 13.506 16.212 9.687 144.723 o
0 -15 7 0.521 1.067 9.599 165.022 o
0 -15 8 6.843 2.482 10.724 128.374 o
0 -15 9 47.865 32.046 12.188 79.921 o
0 -15 10 24.092 13.158 12.489 88.103 o
0 -14 1 552.301 579.246 16.842 5.577 o
0 -14 2 182.971 198.095 10.133 32.576 o
0 -14 3 160.343 193.024 9.977 36.858 o
0 -14 4 63.979 71.064 6.710 125.439 o
0 -14 5 5.949 8.552 8.387 202.248 o
0 -14 6 29.470 26.568 9.386 134.004 o
0 -14 7 1.555 5.507 9.153 177.958 o
0 -14 8 73.105 86.161 8.290 93.186 o
0 -14 9 52.719 49.655 6.787 151.318 o
0 -14 10 46.663 37.941 6.351 180.720 o
0 -14 11 0.957 1.416 12.295 100.613 o
0 -13 1 18.373 8.775 7.767 209.886 o
0 -13 2 7.312 3.103 7.369 259.925 o
0 -13 3 2.376 1.765 7.224 284.260 o
0 -13 4 4.783 7.117 7.282 266.996 o
0 -13 5 3.202 -0.262 7.553 260.781 o
0 -13 6 2.951 -2.889 8.261 219.373 o
0 -13 7 50.217 25.055 9.405 117.385 o
0 -13 8 13.221 -0.126 9.551 155.820 o
0 -13 9 15.023 9.056 10.171 134.084 o
0 -13 10 11.851 6.943 10.996 118.527 o
0 -13 11 9.798 6.613 11.800 104.663 o
0 -12 1 1064.010 1115.700 20.701 1.733 o
0 -12 2 952.590 956.411 19.063 2.192 o
0 -12 3 387.500 362.195 11.926 11.303 o
0 -12 4 222.707 255.245 10.365 24.187 o
0 -12 5 27.921 21.206 7.495 193.200 o
0 -12 6 85.384 94.723 6.991 93.132 o
0 -12 7 428.803 406.109 13.943 9.238 o
0 -12 8 237.832 262.517 12.004 21.327 o
0 -12 9 63.874 55.763 6.875 131.717 o
0 -12 10 39.224 31.552 5.537 231.457 o
0 -12 11 0.537 0.281 11.335 118.710 o
0 -11 1 476.288 447.522 12.605 7.983 o
0 -11 2 92.570 110.761 6.632 85.418 o
0 -11 3 116.437 122.697 6.787 68.367 o
0 -11 4 0.558 3.239 6.196 387.521 o
0 -11 5 51.771 50.779 5.527 179.534 o
0 -11 6 101.055 117.800 7.582 73.153 o
0 -11 7 192.408 211.805 10.181 30.242 o
0 -11 8 108.877 117.354 8.232 66.430 o
0 -11 9 3.925 2.812 9.095 179.079 o
0 -11 10 1.545 1.222 9.687 161.148 o
0 -11 11 2.634 6.293 10.753 129.007 o
0 -11 12 4.016 1.968 12.101 102.674 o
0 -10 1 413.766 350.462 10.491 10.931 o
0 -10 2 37.093 36.865 4.034 293.471 o
0 -10 3 2.848 1.716 5.537 470.639 o
0 -10 4 0.847 -2.793 5.954 426.445 o
0 -10 5 288.447 281.269 10.317 18.056 o
0 -10 6 162.624 124.403 7.621 48.814 o
0 -10 7 151.196 138.337 8.310 48.342 o
0 -10 8 0.996 -1.745 8.009 236.589 o
0 -10 9 28.978 20.217 8.979 147.051 o
0 -10 10 2.627 4.606 9.396 168.517 o
0 -10 11 1.230 -7.369 10.821 129.921 o
0 -10 12 0.226 3.171 11.577 113.332 o
0 -9 1 553.917 580.302 12.421 5.828 o
0 -9 2 187.877 166.078 6.894 39.096 o
0 -9 3 404.830 487.887 11.577 9.180 o
0 -9 4 282.036 303.086 9.648 18.055 o
0 -9 5 1674.040 1585.830 22.282 0.793 o
0 -9 6 1690.540 1685.740 24.328 0.750 o
0 -9 7 288.606 285.381 10.908 17.657 o
0 -9 8 306.094 331.283 12.431 14.893 o
0 -9 9 74.493 72.150 6.526 116.247 o
0 -9 10 20.108 10.792 9.318 151.289 o
0 -9 11 27.160 15.727 10.976 108.445 o
0 -9 12 16.042 8.164 11.800 101.822 o
0 -8 1 48.460 24.124 3.248 302.886 o
0 -8 2 14.554 13.332 4.441 488.362 o
0 -8 3 344.052 263.748 8.174 16.052 o
0 -8 4 33.955 27.964 3.849 342.060 o
0 -8 5 1604.870 1522.390 21.167 0.860 o
0 -8 6 666.900 663.516 14.903 4.259 o
0 -8 7 17.820 13.885 6.894 249.423 o
0 -8 8 18.674 14.603 7.447 218.452 o
0 -8 9 0.120 -0.524 7.747 254.515 o
0 -8 10 4.779 6.041 8.891 184.196 o
0 -8 11 28.521 36.991 5.692 248.308 o
0 -8 12 11.367 11.131 11.587 106.709 o
0 -7 1 54.981 32.676 3.258 255.283 o
0 -7 2 66.190 53.068 3.975 178.593 o
0 -7 3 694.335 659.327 11.975 4.164 o
0 -7 4 2293.180 2092.490 22.224 0.445 o
0 -7 5 438.764 382.062 10.414 9.797 o
0 -7 6 911.787 875.331 16.319 2.472 o
0 -7 7 51.678 53.213 5.042 188.552 o
0 -7 8 70.341 61.562 5.459 141.069 o
0 -7 9 0.960 1.105 7.486 269.338 o
0 -7 10 6.143 3.432 8.824 186.830 o
0 -7 11 3.883 -0.582 10.268 142.422 o
0 -7 12 2.829 3.462 11.209 119.546 o
0 -6 1 4.926 8.009 3.549 891.381 o
0 -6 2 2363.970 2257.300 19.732 0.409 o
0 -6 3 9320.330 9089.260 41.151 0.027 o
0 -6 4 8845.450 8195.810 41.684 0.031 o
0 -6 5 3052.760 2919.220 26.927 0.247 o
0 -6 6 308.691 308.952 9.609 16.315 o
0 -6 7 168.085 179.779 7.970 40.129 o
0 -6 8 61.568 63.288 5.459 152.736 o
0 -6 9 93.711 84.435 6.778 92.524 o
0 -6 10 128.489 115.725 8.572 57.868 o
0 -6 11 143.364 138.589 10.045 45.674 o
0 -6 12 73.458 63.753 7.912 104.910 o
0 -5 1 1629.300 1498.570 14.283 0.863 o
0 -5 2 1084.190 927.099 11.868 1.956 o
0 -5 3 2918.610 2604.300 20.818 0.283 o
0 -5 4 1362.780 1198.760 15.427 1.241 o
0 -5 5 137.134 107.987 5.314 67.501 o
0 -5 6 42.230 31.969 3.568 301.277 o
0 -5 7 188.464 190.677 8.077 35.092 o
0 -5 8 95.473 86.811 6.157 94.968 o
0 -5 9 119.911 122.522 8.096 61.582 o
0 -5 10 133.117 138.569 9.085 51.117 o
0 -5 11 54.859 42.790 6.031 169.606 o
0 -5 12 15.426 5.808 11.325 110.710 o
0 -4 1 387.680 512.884 7.738 9.727 o
0 -4 2 16505.600 18039.900 122.318 0.008 o
0 -4 3 1556.810 1380.740 14.438 0.962 o
0 -4 4 2203.780 2029.490 19.179 0.480 o
0 -4 5 272.498 224.440 7.282 22.906 o
0 -4 6 19.153 14.409 4.916 392.544 o
0 -4 7 0.858 -2.094 5.682 467.570 o
0 -4 8 5.669 1.067 6.400 346.954 o
0 -4 9 41.202 22.418 4.043 307.664 o
0 -4 10 83.783 76.969 7.689 94.606 o
0 -4 11 7.096 6.109 9.803 150.924 o
0 -4 12 2.255 1.939 10.734 130.909 o
0 -3 1 15652.400 18170.200 101.103 0.009 o
0 -3 2 31466.800 37033.000 161.084 0.002 o
0 -3 3 8134.600 7324.060 30.980 0.037 o
0 -3 4 2391.550 2219.660 19.412 0.407 o
0 -3 5 730.835 719.444 12.343 3.711 o
0 -3 6 301.511 301.166 8.891 17.195 o
0 -3 7 618.472 605.202 13.759 4.950 o
0 -3 8 692.984 707.178 16.503 3.874 o
0 -3 9 384.283 377.534 13.449 10.857 o
0 -3 10 353.139 406.487 14.981 11.006 o
0 -3 11 15.141 4.421 9.890 142.775 o
0 -3 12 0.071 1.357 10.695 133.258 o
0 -2 1 4483.680 3970.310 15.242 0.123 o
0 -2 2 6215.370 5624.920 21.952 0.064 o
0 -2 3 675.081 605.542 8.872 4.609 o
0 -2 4 712.005 664.039 10.443 4.059 o
0 -2 5 188.310 187.225 6.419 37.503 o
0 -2 6 156.270 121.455 5.837 55.514 o
0 -2 7 408.969 413.022 11.568 10.009 o
0 -2 8 256.025 255.186 10.443 21.220 o
0 -2 9 143.213 132.868 8.368 51.182 o
0 -2 10 78.037 47.677 5.827 134.889 o
0 -2 11 0.721 -5.120 9.774 159.483 o
0 -2 12 0.251 1.513 10.773 131.210 o
0 -1 2 3197.280 2902.990 15.213 0.235 o
0 -1 3 1477.640 1324.530 12.799 1.059 o
0 -1 4 301.751 303.251 7.224 17.649 o
0 -1 5 285.877 292.818 7.922 18.814 o
0 -1 6 2.157 2.647 4.577 674.561 o
0 -1 7 106.029 106.194 6.409 79.871 o
0 -1 8 309.357 300.885 11.316 15.889 o
0 -1 9 51.258 55.414 6.196 161.463 o
0 -1 10 13.254 7.350 8.756 178.429 o
0 -1 11 4.989 2.405 9.754 155.616 o
0 -1 12 3.231 3.423 11.063 122.460 o
0 0 2 12668.000 15207.000 93.016 0.013 o
0 0 3 231.537 226.505 5.779 28.091 o
0 0 4 1.688 1.387 3.229 1318.640 o
0 0 5 2097.610 2029.630 21.060 0.510 o
0 0 6 1656.610 1732.230 21.817 0.761 o
0 0 7 2209.250 2294.880 28.129 0.437 o
0 0 8 956.583 1038.670 20.605 2.055 o
0 0 9 194.641 205.008 10.336 30.206 o
0 0 10 5.350 5.042 8.795 187.994 o
0 0 11 3.024 3.597 9.861 153.453 o
0 0 12 22.126 22.922 12.004 93.443 o
0 1 1 65.862 68.300 2.327 184.615 o
0 1 2 3146.780 3347.260 17.637 0.219 o
0 1 3 409.454 434.732 7.883 10.179 o
0 1 4 745.732 686.128 11.180 3.747 o
0 1 5 1668.580 1806.650 20.314 0.736 o
0 1 6 919.277 933.993 16.290 2.354 o
0 1 7 208.155 189.552 8.630 31.417 o
0 1 8 163.945 173.098 9.037 39.762 o
0 1 9 0.031 -0.882 7.738 255.338 o
0 1 10 5.556 0.368 8.795 190.611 o
0 1 11 1.374 2.230 10.162 146.348 o
0 1 12 8.583 7.679 11.917 102.986 o
0 2 0 2239.430 2108.140 10.666 0.462 o
0 2 1 175.359 173.379 4.295 44.441 o
0 2 2 71.896 113.155 4.431 117.941 o
0 2 3 4.330 1.406 3.394 1089.870 o
0 2 4 85.627 103.537 4.800 106.014 o
0 2 5 726.154 686.380 13.032 3.827 o
0 2 6 921.050 980.041 17.395 2.267 o
0 2 7 683.309 761.700 16.552 3.762 o
0 2 8 13.189 15.524 7.418 230.122 o
0 2 9 39.986 35.246 4.557 262.308 o
0 2 10 1.604 2.046 9.056 183.543 o
0 2 11 4.308 2.763 10.598 132.770 o
0 2 12 5.158 -0.320 12.402 97.784 o
0 3 0 8205.770 8067.380 67.583 0.034 o
0 3 1 19.366 18.055 2.977 612.695 o
0 3 2 418.100 401.998 7.553 10.433 o
0 3 3 1018.840 880.712 12.246 2.180 o
0 3 4 3619.590 3510.540 27.421 0.176 o
0 3 5 4836.240 4959.490 36.128 0.096 o
0 3 6 2040.220 2179.270 26.461 0.501 o
0 3 7 492.505 552.251 14.729 6.654 o
0 3 8 0.477 0.737 7.175 294.648 o
0 3 9 5.193 4.586 8.329 208.995 o
0 3 10 62.342 61.610 6.943 129.097 o
0 3 11 55.025 56.646 7.427 132.205 o
0 4 0 0.335 3.355 3.384 1229.300 o
0 4 1 1.948 -1.988 3.258 1321.640 o
0 4 2 1889.120 1772.160 16.707 0.640 o
0 4 3 2016.950 1867.540 18.859 0.567 o
0 4 4 1326.200 1287.790 17.463 1.225 o
0 4 5 378.952 339.311 10.268 12.314 o
0 4 6 14.273 8.504 6.564 288.162 o
0 4 7 36.843 24.503 3.879 333.766 o
0 4 8 8.717 -0.659 7.689 240.545 o
0 4 9 15.271 7.340 8.940 169.632 o
0 4 10 58.404 56.655 6.933 136.693 o
0 4 11 10.021 2.560 11.907 103.581 o
0 5 0 875.775 921.194 11.529 2.572 o
0 5 1 122.333 165.593 5.527 60.757 o
0 5 2 520.861 484.532 9.580 7.126 o
0 5 3 732.247 608.490 11.781 4.080 o
0 5 4 1609.980 1607.740 20.701 0.829 o
0 5 5 1591.120 1573.110 22.166 0.850 o
0 5 6 0.421 0.591 6.196 394.730 o
0 5 7 29.518 20.003 7.476 192.188 o
0 5 8 5.991 2.405 8.067 222.519 o
0 5 9 20.131 14.729 9.784 137.469 o
0 5 10 23.730 23.281 11.509 99.790 o
0 5 11 26.298 16.125 12.925 81.713 o
0 6 0 19.219 2.220 3.588 639.215 o
0 6 1 460.059 385.388 8.659 9.418 o
0 6 2 3225.330 2817.390 24.444 0.235 o
0 6 3 4123.880 3974.340 31.513 0.137 o
0 6 4 2264.290 2275.620 26.015 0.427 o
0 6 5 1525.930 1662.760 23.514 0.861 o
0 6 6 39.276 14.457 6.923 199.286 o
0 6 7 155.410 156.304 8.610 44.306 o
0 6 8 88.977 100.327 7.757 83.279 o
0 6 9 149.974 156.061 10.559 41.064 o
0 6 10 121.191 126.556 10.453 51.469 o
0 7 0 579.824 560.134 10.666 5.729 o
0 7 1 2011.000 1865.010 20.401 0.568 o
0 7 2 549.571 545.376 11.810 6.133 o
0 7 3 520.954 525.683 12.295 6.626 o
0 7 4 67.887 73.032 5.954 130.049 o
0 7 5 4.270 4.858 6.380 346.866 o
0 7 6 0.131 -0.388 6.836 326.782 o
0 7 7 4.592 2.385 7.951 231.267 o
0 7 8 85.354 75.427 7.476 95.959 o
0 7 9 29.866 20.799 11.519 97.457 o
0 7 10 7.478 6.778 11.956 102.940 o
0 8 0 330.556 325.009 8.979 14.952 o
0 8 1 647.110 562.432 12.120 4.950 o
0 8 2 1934.560 1865.670 23.523 0.595 o
0 8 3 1203.000 1177.040 19.373 1.453 o
0 8 4 197.555 231.450 9.357 29.223 o
0 8 5 3.408 5.740 6.710 317.378 o
0 8 6 1.595 -0.931 7.602 261.077 o
0 8 7 36.798 27.983 9.396 127.043 o
0 8 8 20.360 14.816 10.317 125.205 o
0 8 9 46.833 34.228 12.576 76.081 o
0 8 10 31.727 30.708 13.391 73.324 o
0 9 0 2207.050 2041.490 23.504 0.474 o
0 9 1 3040.930 3065.780 29.826 0.240 o
0 9 2 1777.300 1763.460 23.746 0.686 o
0 9 3 1399.060 1551.230 23.736 1.000 o
0 9 4 5.285 1.697 6.448 342.396 o
0 9 5 9.944 6.661 7.447 245.053 o
0 9 6 187.536 214.530 10.656 30.112 o
0 9 7 248.707 301.108 13.216 18.440 o
0 9 8 195.909 234.902 12.731 25.572 o
0 9 9 105.088 93.870 10.065 63.230 o
0 10 0 147.027 157.875 8.164 47.215 o
0 10 1 28.233 17.065 6.952 218.238 o
0 10 2 15.820 9.880 6.758 268.334 o
0 10 3 15.696 12.528 6.855 259.017 o
0 10 4 38.278 22.175 7.854 165.016 o
0 10 5 79.457 62.589 6.332 118.303 o
0 10 6 121.350 118.605 8.678 59.437 o
0 10 7 48.546 37.195 6.196 182.086 o
0 10 8 9.809 4.208 11.655 107.666 o
0 10 9 0.203 -2.056 12.857 92.445 o
0 11 0 1251.660 1311.990 21.613 1.283 o
0 11 1 581.384 585.674 14.923 5.353 o
0 11 2 66.918 54.212 5.546 150.047 o
0 11 3 37.782 11.791 7.563 182.271 o
0 11 4 0.670 -2.599 8.087 232.668 o
0 11 5 24.771 21.312 9.464 138.552 o
0 11 6 69.700 56.956 7.136 120.974 o
0 11 7 120.223 122.512 9.987 54.039 o
0 11 8 45.325 34.141 12.896 73.580 o
0 12 0 782.893 806.061 17.880 3.082 o
0 12 1 464.943 562.558 15.407 6.921 o
0 12 2 70.780 69.435 6.012 127.990 o
0 12 3 22.139 24.900 8.542 164.065 o
0 12 4 217.344 240.060 11.519 24.450 o
0 12 5 305.265 343.083 14.515 13.910 o
0 12 6 205.486 244.045 13.090 23.881 o
0 12 7 91.951 105.292 9.502 69.235 o
0 13 0 25.614 17.434 7.883 186.036 o
0 13 1 67.176 58.750 6.177 136.632 o
0 13 2 30.786 15.863 8.465 161.369 o
0 13 3 5.368 1.193 8.950 184.029 o
0 13 4 50.725 43.129 6.031 176.710 o
0 13 5 21.998 14.447 11.257 106.659 o
0 13 6 4.996 5.197 11.480 112.726 o
0 13 7 0.157 -2.288 12.673 95.164 o
0 14 0 64.376 60.602 6.206 138.595 o
0 14 1 0.245 0.465 8.378 217.153 o
0 14 2 19.044 26.151 9.609 137.897 o
0 14 3 6.762 3.491 9.716 154.882 o
0 14 4 58.689 55.278 7.486 128.028 o
0 14 5 82.962 86.772 8.979 81.320 o
0 14 6 52.903 50.236 7.524 136.475 o
0 15 0 9.295 10.986 9.027 171.248 o
0 15 1 0.378 3.481 9.241 176.923 o
0 15 2 63.214 68.485 7.398 118.127 o
0 15 3 137.444 176.123 11.131 40.209 o
0 15 4 173.474 188.631 11.985 31.801 o
0 15 5 84.328 81.807 9.522 77.727 o
0 16 0 0.738 -0.921 9.687 162.344 o
0 16 1 1.252 2.589 10.152 146.584 o
0 16 2 21.706 16.697 11.102 108.879 o
0 16 3 36.007 33.142 12.605 79.486 o
0 16 4 2.419 -3.917 12.741 93.512 o
0 17 0 3.152 2.560 10.811 128.399 o
0 17 1 22.119 21.215 11.946 94.585 o
0 17 2 43.971 39.697 13.294 69.683 o
0 17 3 60.039 55.482 8.523 111.224 o
0 18 0 28.567 33.268 12.780 79.999 o
0 18 1 69.796 74.021 8.814 94.126 o
1 -19 0 38.252 36.080 13.420 70.615 o
1 -19 1 3.697 -1.357 12.188 101.680 o
1 -19 2 0.666 0.213 11.742 110.601 o
1 -19 3 24.334 11.655 12.285 90.922 o
1 -19 4 27.474 14.205 12.605 85.373 o
1 -19 5 17.777 13.313 12.547 89.422 o
1 -19 6 18.175 18.753 12.857 84.546 o
1 -18 0 0.783 -2.967 11.412 117.060 o
1 -18 1 4.940 1.348 10.840 127.079 o
1 -18 2 2.158 -0.039 11.005 125.157 o
1 -18 3 10.975 6.516 11.364 111.919 o
1 -18 4 35.039 32.851 11.820 88.739 o
1 -18 5 13.636 17.909 11.636 103.449 o
1 -18 6 5.562 3.491 11.791 107.143 o
1 -18 7 0.024 3.190 11.752 110.088 o
1 -17 0 36.017 30.398 11.500 92.865 o
1 -17 1 23.786 19.926 10.472 118.245 o
1 -17 2 59.309 37.098 5.905 169.628 o
1 -17 3 61.629 51.371 6.807 138.121 o
1 -17 4 41.170 26.403 10.928 99.085 o
1 -17 5 123.236 136.029 10.365 49.982 o
1 -17 6 39.880 39.832 6.477 188.124 o
1 -17 7 28.035 32.240 11.926 90.328 o
1 -17 8 4.007 2.860 11.674 109.999 o
1 -16 0 12.453 -0.320 9.745 150.732 o
1 -16 1 93.312 91.232 7.893 82.448 o
1 -16 2 262.857 302.592 13.187 17.562 o
1 -16 3 221.650 269.527 12.654 21.836 o
1 -16 4 205.777 200.936 11.151 28.107 o
1 -16 5 71.453 62.851 7.039 117.591 o
1 -16 6 22.970 21.080 10.356 120.658 o
1 -16 7 10.088 13.953 10.443 129.401 o
1 -16 8 12.938 13.449 11.267 111.130 o
1 -16 9 43.486 37.651 12.925 73.340 o
1 -15 0 14.850 4.451 8.930 172.059 o
1 -15 1 120.258 123.395 8.785 58.558 o
1 -15 2 70.803 80.799 7.466 105.156 o
1 -15 3 0.667 3.442 8.504 208.082 o
1 -15 4 1.181 -4.237 9.066 184.744 o
1 -15 5 39.904 24.085 9.551 123.112 o
1 -15 6 3.201 -1.067 9.289 174.025 o
1 -15 7 1.961 -3.025 9.648 162.599 o
1 -15 8 0.821 1.338 10.559 136.252 o
1 -15 9 5.398 5.042 11.432 113.512 o
1 -15 10 17.420 13.934 12.450 90.724 o
1 -14 0 120.613 117.461 8.465 60.773 o
1 -14 1 415.082 431.862 14.457 9.176 o
1 -14 2 381.734 396.645 13.982 10.548 o
1 -14 3 421.822 470.036 14.835 8.561 o
1 -14 4 196.232 240.661 10.908 27.196 o
1 -14 5 32.059 29.322 4.703 299.377 o
1 -14 6 7.622 4.053 8.572 194.996 o
1 -14 7 34.592 21.002 9.619 127.150 o
1 -14 8 85.964 72.208 7.709 94.571 o
1 -14 9 42.116 30.679 11.674 88.037 o
1 -14 10 21.065 17.133 11.994 95.113 o
1 -13 0 761.275 852.108 19.150 3.047 o
1 -13 1 1319.960 1461.410 24.745 1.111 o
1 -13 2 339.500 373.772 12.605 12.581 o
1 -13 3 300.307 283.247 10.986 16.995 o
1 -13 4 105.090 99.067 7.069 78.793 o
1 -13 5 65.941 55.443 5.857 145.525 o
1 -13 6 141.057 133.566 8.494 51.342 o
1 -13 7 350.978 400.194 14.496 11.281 o
1 -13 8 361.398 414.971 15.747 10.476 o
1 -13 9 111.457 125.925 9.425 58.506 o
1 -13 10 29.581 22.553 11.771 93.696 o
1 -13 11 1.733 3.529 11.868 107.241 o
1 -12 0 217.115 214.656 9.735 27.479 o
1 -12 1 6.367 2.308 6.846 301.769 o
1 -12 2 23.734 21.409 4.208 404.160 o
1 -12 3 20.689 20.682 7.107 223.743 o
1 -12 4 12.468 4.761 6.661 292.879 o
1 -12 5 0.160 2.143 7.069 302.396 o
1 -12 6 36.551 27.896 5.052 266.503 o
1 -12 7 29.911 39.076 5.789 236.878 o
1 -12 8 49.952 45.010 6.167 173.096 o
1 -12 9 1.196 1.707 9.628 163.172 o
1 -12 10 10.992 7.873 10.550 128.309 o
1 -12 11 0.064 -2.511 11.529 115.018 o
1 -11 0 895.505 871.336 17.269 2.520 o
1 -11 1 1611.050 1669.800 23.349 0.803 o
1 -11 2 978.817 1061.800 18.530 1.995 o
1 -11 3 248.235 244.172 9.512 22.939 o
1 -11 4 110.039 117.121 7.001 71.806 o
1 -11 5 119.657 91.339 6.758 74.639 o
1 -11 6 518.732 544.737 15.213 6.306 o
1 -11 7 425.128 439.823 14.418 8.870 o
1 -11 8 143.961 167.028 9.541 43.570 o
1 -11 9 67.527 65.935 6.884 122.018 o
1 -11 10 39.653 32.424 11.015 97.125 o
1 -11 11 1.013 3.597 10.831 128.831 o
1 -11 12 3.596 -0.349 12.663 94.308 o
1 -10 0 1434.010 1444.000 20.605 1.025 o
1 -10 1 1354.850 1272.640 19.014 1.195 o
1 -10 2 5.695 8.533 5.197 475.961 o
1 -10 3 224.956 244.841 8.862 25.660 o
1 -10 4 369.444 342.550 10.753 12.500 o
1 -10 5 819.567 873.712 17.434 2.791 o
1 -10 6 2226.920 2373.880 30.514 0.421 o
1 -10 7 288.463 294.689 11.480 17.136 o
1 -10 8 125.504 122.958 8.155 59.210 o
1 -10 9 18.556 17.686 9.192 152.991 o
1 -10 10 0.633 0.621 9.512 168.147 o
1 -10 11 11.632 7.166 10.889 120.769 o
1 -10 12 5.488 1.949 12.023 103.447 o
1 -9 0 301.235 325.940 9.502 16.293 o
1 -9 1 141.634 142.972 6.400 55.478 o
1 -9 2 22.497 13.681 4.829 382.006 o
1 -9 3 71.501 81.032 5.362 128.128 o
1 -9 4 242.617 240.865 8.765 24.118 o
1 -9 5 308.994 321.868 10.579 15.630 o
1 -9 6 366.248 384.186 12.285 11.557 o
1 -9 7 27.385 29.360 4.257 350.480 o
1 -9 8 2.843 8.155 7.592 250.121 o
1 -9 9 1.380 1.978 8.184 224.417 o
1 -9 10 0.853 -2.162 9.464 169.949 o
1 -9 11 1.833 1.648 10.453 138.300 o
1 -9 12 0.765 0.485 11.732 110.691 o
1 -8 0 1922.810 1832.710 20.411 0.609 o
1 -8 1 1627.440 1721.470 19.528 0.785 o
1 -8 2 61.445 51.633 3.801 194.120 o
1 -8 3 1100.710 1029.880 15.659 1.783 o
1 -8 4 1605.750 1561.600 20.440 0.847 o
1 -8 5 1005.690 907.862 16.396 2.142 o
1 -8 6 1603.620 1650.860 23.339 0.814 o
1 -8 7 157.206 171.391 8.533 42.335 o
1 -8 8 442.934 488.983 14.544 8.000 o
1 -8 9 39.262 32.221 4.761 261.938 o
1 -8 10 7.869 2.007 9.211 171.079 o
1 -8 11 14.803 10.811 10.598 124.019 o
1 -8 12 9.147 9.241 11.800 104.397 o
1 -7 0 392.187 395.889 8.882 11.144 o
1 -7 1 1.461 3.694 3.714 991.192 o
1 -7 2 757.267 690.307 11.645 3.654 o
1 -7 3 1789.280 1611.520 18.568 0.725 o
1 -7 4 6284.770 6126.590 38.252 0.059 o
1 -7 5 2907.310 2827.110 28.003 0.269 o
1 -7 6 446.518 451.080 12.140 8.594 o
1 -7 7 14.147 11.490 6.681 275.914 o
1 -7 8 6.120 1.484 7.039 288.418 o
1 -7 9 2.377 1.619 8.096 227.798 o
1 -7 10 30.908 29.903 5.168 277.900 o
1 -7 11 43.943 35.682 5.847 203.401 o
1 -7 12 37.851 31.212 12.392 81.450 o
1 -6 0 0.280 1.241 3.462 1231.040 o
1 -6 1 348.699 328.723 7.486 14.344 o
1 -6 2 2910.290 2807.890 21.691 0.271 o
1 -6 3 771.896 798.536 12.421 3.261 o
1 -6 4 1404.770 1438.050 17.948 1.062 o
1 -6 5 70.863 81.866 5.071 131.754 o
1 -6 6 382.985 372.337 10.588 11.542 o
1 -6 7 7.507 5.498 6.099 360.017 o
1 -6 8 0.615 0.970 6.690 337.562 o
1 -6 9 3.587 -0.078 7.738 248.042 o
1 -6 10 27.515 13.206 9.454 139.923 o
1 -6 11 1.680 -2.521 10.394 140.458 o
1 -6 12 0.513 -5.614 11.529 114.829 o
1 -5 0 47.642 37.757 3.394 270.342 o
1 -5 1 2947.480 2414.750 17.812 0.293 o
1 -5 2 3355.540 3160.480 21.361 0.209 o
1 -5 3 6580.360 6068.660 31.959 0.056 o
1 -5 4 2289.620 1935.110 19.761 0.468 o
1 -5 5 786.196 773.297 13.555 3.233 o
1 -5 6 564.944 590.076 13.109 5.606 o
1 -5 7 53.573 55.307 4.926 184.853 o
1 -5 8 59.010 58.546 5.459 160.725 o
1 -5 9 57.659 51.177 5.643 165.766 o
1 -5 10 90.282 79.432 7.563 90.430 o
1 -5 11 65.548 52.903 6.836 132.040 o
1 -5 12 10.654 9.173 11.509 108.811 o
1 -4 0 533.769 509.956 7.796 6.819 o
1 -4 1 5765.120 5136.420 23.358 0.074 o
1 -4 2 9877.130 9137.210 33.559 0.025 o
1 -4 3 5353.090 5038.370 27.518 0.083 o
1 -4 4 1725.770 1643.360 17.599 0.753 o
1 -4 5 3.317 5.110 4.140 761.187 o
1 -4 6 265.483 267.220 8.727 20.940 o
1 -4 7 65.729 69.697 5.226 145.178 o
1 -4 8 324.460 303.038 11.209 15.116 o
1 -4 9 168.407 184.801 9.735 36.589 o
1 -4 10 183.547 186.663 10.540 32.742 o
1 -4 11 42.537 33.530 5.469 222.171 o
1 -4 12 0.130 -0.805 11.122 123.561 o
1 -3 0 6108.170 5555.750 20.837 0.066 o
1 -3 1 1053.870 997.960 9.551 1.956 o
1 -3 2 2120.290 2204.410 15.592 0.480 o
1 -3 3 754.600 817.803 10.986 3.324 o
1 -3 4 815.020 738.701 11.568 3.209 o
1 -3 5 121.475 111.391 5.352 74.477 o
1 -3 6 36.069 38.455 3.859 302.535 o
1 -3 7 0.009 0.291 5.721 466.157 o
1 -3 8 9.489 3.782 6.913 284.820 o
1 -3 9 0.349 -3.103 7.844 247.821 o
1 -3 10 1.896 2.405 8.872 190.558 o
1 -3 11 6.311 6.060 10.036 144.947 o
1 -3 12 1.599 -0.233 11.412 116.701 o
1 -2 0 2542.700 2433.330 11.558 0.357 o
1 -2 1 6810.750 7562.340 59.438 0.046 o
1 -2 2 80.213 47.202 3.365 164.748 o
1 -2 3 749.563 642.504 9.473 3.896 o
1 -2 4 1793.350 1940.830 18.520 0.643 o
1 -2 5 435.548 499.261 10.569 8.488 o
1 -2 6 361.373 364.328 10.191 12.516 o
1 -2 7 262.248 276.547 9.822 20.265 o
1 -2 8 374.149 406.807 13.003 10.816 o
1 -2 9 160.696 201.973 10.113 35.796 o
1 -2 10 48.003 33.569 5.081 220.455 o
1 -2 11 20.539 18.462 10.676 116.758 o
1 -2 12 2.715 2.153 11.267 118.695 o
1 -1 1 12581.600 15528.700 79.800 0.013 o
1 -1 2 3738.050 3455.280 18.190 0.171 o
1 -1 3 1038.650 1086.410 12.431 1.874 o
1 -1 4 287.721 254.585 6.952 20.453 o
1 -1 5 429.554 367.343 9.250 10.400 o
1 -1 6 374.442 345.798 10.055 12.403 o
1 -1 7 700.042 697.821 15.495 3.890 o
1 -1 8 276.347 299.140 11.548 17.689 o
1 -1 9 243.891 242.513 11.412 22.070 o
1 -1 10 3.566 -0.068 9.056 182.509 o
1 -1 11 1.864 3.064 10.113 147.091 o
1 -1 12 11.199 7.776 11.810 103.704 o
1 0 1 15.856 12.111 1.930 971.836 o
1 0 2 2762.730 2465.370 15.853 0.316 o
1 0 3 3578.170 3720.200 22.980 0.172 o
1 0 4 61.808 81.235 4.286 155.458 o
1 0 5 97.221 132.810 5.895 79.847 o
1 0 6 15.894 15.369 5.546 349.119 o
1 0 7 17.103 6.322 6.700 273.529 o
1 0 8 10.913 6.593 7.243 255.127 o
1 0 9 5.516 3.093 8.019 225.302 o
1 0 10 22.514 15.301 9.483 142.666 o
1 0 11 6.723 4.848 10.472 133.735 o
1 0 12 0.320 1.968 11.839 108.600 o
1 1 1 52.279 89.225 3.462 177.590 o
1 1 2 223.433 273.551 6.089 26.053 o
1 1 3 2060.070 2116.110 18.103 0.510 o
1 1 4 517.696 441.985 9.444 7.550 o
1 1 5 1333.110 1474.340 19.528 1.110 o
1 1 6 1525.440 1568.120 21.855 0.898 o
1 1 7 580.865 663.070 15.601 4.944 o
1 1 8 256.516 279.291 11.480 19.661 o
1 1 9 80.720 100.347 7.679 88.914 o
1 1 10 20.331 17.667 9.851 134.548 o
1 1 11 20.322 16.212 11.131 109.202 o
1 1 12 6.395 5.905 12.188 99.722 o
1 2 0 1016.410 1078.650 9.328 1.950 o
1 2 1 526.791 470.114 7.369 7.274 o
1 2 2 3060.830 2946.940 19.683 0.246 o
1 2 3 1236.480 1096.670 13.953 1.489 o
1 2 4 1266.310 1248.670 16.697 1.326 o
1 2 5 1012.650 951.175 15.989 2.071 o
1 2 6 596.438 688.765 14.961 4.720 o
1 2 7 294.705 333.881 11.577 15.697 o
1 2 8 7.463 6.264 7.505 247.490 o
1 2 9 1.090 3.112 8.436 211.014 o
1 2 10 2.683 -0.233 9.803 156.963 o
1 2 11 25.011 19.955 11.829 95.308 o
1 3 0 867.860 838.553 9.687 2.776 o
1 3 1 1840.510 1715.070 14.641 0.677 o
1 3 2 15.163 10.016 3.394 680.435 o
1 3 3 619.875 687.281 11.645 4.651 o
1 3 4 337.101 374.237 9.561 13.410 o
1 3 5 48.925 43.003 4.557 220.798 o
1 3 6 337.507 348.562 11.131 13.538 o
1 3 7 0.356 0.368 6.661 342.572 o
1 3 8 62.720 59.681 5.624 150.985 o
1 3 9 11.811 7.088 8.959 172.984 o
1 3 10 5.448 2.560 10.297 139.734 o
1 3 11 0.624 -1.067 11.800 109.573 o
1 4 0 2296.250 2043.180 16.280 0.454 o
1 4 1 3540.610 3569.210 22.951 0.180 o
1 4 2 3435.780 3269.510 23.979 0.198 o
1 4 3 3264.320 3602.440 27.673 0.197 o
1 4 4 2676.970 2675.820 26.461 0.310 o
1 4 5 1822.860 2067.300 25.317 0.597 o
1 4 6 383.308 397.712 12.469 10.785 o
1 4 7 103.056 113.049 7.263 75.047 o
1 4 8 54.010 55.511 5.973 161.556 o
1 4 9 41.377 43.459 5.779 202.512 o
1 4 10 35.263 34.461 11.713 89.624 o
1 4 11 25.225 17.754 12.586 85.762 o
1 5 0 2123.930 2177.640 18.588 0.482 o
1 5 1 1692.950 1462.330 16.212 0.830 o
1 5 2 1647.590 1619.230 18.297 0.805 o
1 5 3 539.236 465.295 10.811 6.906 o
1 5 4 576.390 572.196 12.954 5.586 o
1 5 5 236.615 253.208 9.648 23.500 o
1 5 6 5.836 5.381 6.671 313.041 o
1 5 7 28.044 28.817 4.460 334.693 o
1 5 8 13.065 8.717 8.824 175.395 o
1 5 9 66.010 61.707 7.233 120.960 o
1 5 10 38.287 29.389 12.043 85.506 o
1 6 0 1014.340 1137.090 15.039 1.856 o
1 6 1 53.041 37.912 3.626 242.542 o
1 6 2 1122.430 1223.030 16.862 1.557 o
1 6 3 234.625 215.936 7.999 26.850 o
1 6 4 97.852 82.758 5.701 97.980 o
1 6 5 134.367 126.236 7.292 58.432 o
1 6 6 0.366 -0.398 6.981 312.596 o
1 6 7 66.777 57.896 6.167 137.838 o
1 6 8 3.752 -0.116 9.502 165.930 o
1 6 9 1.169 -0.960 10.268 144.242 o
1 6 10 4.767 2.424 11.829 106.977 o
1 7 0 1315.920 1147.950 15.815 1.330 o
1 7 1 3115.630 3195.950 27.780 0.227 o
1 7 2 2548.970 2448.040 25.695 0.350 o
1 7 3 1538.850 1631.480 22.292 0.865 o
1 7 4 1013.130 1120.920 19.693 1.840 o
1 7 5 196.457 193.334 9.153 32.235 o
1 7 6 141.634 175.774 9.299 43.679 o
1 7 7 142.869 142.409 9.299 47.374 o
1 7 8 63.486 70.666 7.195 119.547 o
1 7 9 37.687 29.225 12.062 85.540 o
1 7 10 40.521 29.147 13.429 70.846 o
1 8 0 1410.970 1404.570 19.014 1.069 o
1 8 1 1060.540 1047.780 17.017 1.838 o
1 8 2 542.372 561.666 13.420 6.023 o
1 8 3 276.779 298.122 10.404 18.223 o
1 8 4 192.202 208.732 9.270 31.590 o
1 8 5 5.246 2.356 7.204 277.334 o
1 8 6 47.804 42.722 5.333 201.716 o
1 8 7 53.311 56.985 6.535 150.327 o
1 8 8 42.610 37.175 5.692 209.771 o
1 8 9 43.613 27.528 12.663 77.346 o
1 9 0 408.228 415.330 11.383 10.026 o
1 9 1 430.807 413.381 11.713 9.430 o
1 9 2 204.934 195.680 8.727 31.331 o
1 9 3 252.982 255.128 10.210 21.612 o
1 9 4 80.679 68.921 6.002 117.461 o
1 9 5 109.594 96.245 7.466 74.906 o
1 9 6 15.487 7.117 9.318 157.462 o
1 9 7 0.277 -1.939 9.968 153.693 o
1 9 8 3.611 4.722 10.870 126.222 o
1 9 9 2.613 -1.900 12.479 97.386 o
1 10 0 1853.230 1918.160 25.365 0.615 o
1 10 1 1220.880 1270.730 21.419 1.350 o
1 10 2 768.064 863.754 18.084 3.014 o
1 10 3 290.113 300.439 11.480 16.878 o
1 10 4 69.796 62.580 6.196 130.754 o
1 10 5 134.479 142.632 9.066 50.227 o
1 10 6 90.507 112.070 8.630 73.651 o
1 10 7 75.368 74.109 7.796 100.714 o
1 10 8 61.360 41.995 7.107 138.940 o
1 11 0 213.596 218.050 9.677 27.749 o
1 11 1 141.442 126.226 7.747 54.574 o
1 11 2 143.128 147.519 8.494 48.802 o
1 11 3 0.803 1.134 7.786 249.476 o
1 11 4 60.139 64.344 6.516 136.708 o
1 11 5 93.432 106.930 8.426 74.730 o
1 11 6 84.683 94.451 8.756 80.088 o
1 11 7 37.071 31.338 11.985 86.272 o
1 11 8 24.188 10.288 13.061 81.642 o
1 12 0 246.160 225.981 10.307 23.403 o
1 12 1 103.505 79.170 6.778 87.620 o
1 12 2 24.406 16.367 8.281 174.877 o
1 12 3 159.264 147.471 9.405 42.663 o
1 12 4 23.180 12.566 9.784 135.907 o
1 12 5 15.142 8.222 10.346 130.199 o
1 12 6 7.624 1.319 11.199 117.954 o
1 12 7 11.339 7.844 12.237 96.896 o
1 13 0 287.326 339.389 12.906 15.412 o
1 13 1 337.079 405.372 14.351 11.671 o
1 13 2 156.515 170.800 10.104 39.349 o
1 13 3 146.573 169.404 10.288 41.035 o
1 13 4 109.107 128.175 9.561 58.338 o
1 13 5 42.861 35.217 11.936 83.851 o
1 13 6 62.219 54.018 7.253 128.621 o
1 14 0 60.179 73.905 7.156 121.766 o
1 14 1 22.518 12.964 9.376 146.458 o
1 14 2 2.530 5.217 9.696 158.317 o
1 14 3 26.852 23.232 10.879 108.228 o
1 14 4 47.627 45.766 6.574 166.608 o
1 14 5 26.971 17.444 12.275 89.070 o
1 15 0 38.759 25.695 10.239 111.157 o
1 15 1 99.855 107.580 8.542 70.882 o
1 15 2 36.865 30.873 5.275 250.308 o
1 15 3 1.080 -4.567 11.345 118.327 o
1 15 4 1.269 1.823 11.597 112.803 o
1 16 0 25.774 25.627 10.879 108.163 o
1 16 1 77.563 93.094 8.513 86.298 o
1 16 2 43.120 35.100 12.324 79.667 o
1 16 3 30.919 27.693 12.644 81.611 o
1 17 0 1.624 1.222 11.267 119.420 o
1 17 1 31.057 22.631 12.440 84.717 o
1 17 2 22.156 15.650 12.634 86.509 o
1 18 0 10.551 5.527 12.411 94.972 o
2 -19 0 19.295 13.565 12.372 91.189 o
2 -19 1 19.550 9.774 12.120 95.285 o
2 -19 2 29.936 20.876 12.178 88.591 o
2 -19 3 17.195 13.565 11.771 100.699 o
2 -19 4 0.271 -0.213 11.742 110.797 o
2 -19 5 0.796 1.939 11.829 108.601 o
2 -19 6 4.381 3.345 12.256 99.777 o
2 -18 0 104.059 99.435 9.173 67.340 o
2 -18 1 32.597 34.024 11.849 89.128 o
2 -18 2 86.648 94.403 8.698 79.498 o
2 -18 3 59.269 54.648 7.001 135.712 o
2 -18 4 22.065 21.244 11.296 104.348 o
2 -18 5 72.927 82.961 8.407 93.245 o
2 -18 6 66.265 70.211 8.310 103.380 o
2 -18 7 43.788 41.083 7.379 156.668 o
2 -17 0 2.721 -4.548 10.608 134.292 o
2 -17 1 0.709 1.677 9.842 156.645 o
2 -17 2 34.800 32.977 5.924 226.299 o
2 -17 3 70.716 71.471 7.767 105.675 o
2 -17 4 62.098 52.738 6.535 141.282 o
2 -17 5 38.827 32.163 11.354 93.091 o
2 -17 6 8.027 2.851 11.112 119.168 o
2 -17 7 0.034 -3.752 11.364 118.391 o
2 -17 8 0.296 -5.333 12.053 105.161 o
2 -16 0 151.505 165.758 10.104 40.822 o
2 -16 1 16.072 7.010 9.405 154.362 o
2 -16 2 1.545 -3.239 9.221 178.247 o
2 -16 3 0.267 -7.670 9.425 171.895 o
2 -16 4 27.979 16.076 9.754 131.411 o
2 -16 5 75.468 63.734 7.263 110.728 o
2 -16 6 43.089 25.278 10.646 102.387 o
2 -16 7 17.892 9.687 10.685 120.695 o
2 -16 8 0.078 2.511 10.879 128.487 o
2 -16 9 0.073 -3.054 11.868 108.532 o
2 -15 0 130.470 151.436 9.657 48.364 o
2 -15 1 307.171 407.544 14.205 12.695 o
2 -15 2 283.224 348.038 13.303 15.241 o
2 -15 3 270.433 332.883 13.381 16.219 o
2 -15 4 499.161 583.328 17.395 6.130 o
2 -15 5 187.762 205.154 10.889 30.394 o
2 -15 6 49.795 52.108 6.167 167.230 o
2 -15 7 3.500 7.854 9.784 153.714 o
2 -15 8 6.441 4.305 10.666 129.431 o
2 -15 9 5.494 5.323 11.393 114.156 o
2 -15 10 9.587 6.913 12.450 94.495 o
2 -14 0 116.517 129.785 8.232 60.949 o
2 -14 1 280.695 268.994 11.412 18.422 o
2 -14 2 104.958 114.620 7.718 71.326 o
2 -14 3 46.058 29.874 4.460 253.907 o
2 -14 4 24.917 19.887 8.426 167.275 o
2 -14 5 2.333 -4.005 8.436 211.469 o
2 -14 6 0.057 0.078 8.465 213.265 o
2 -14 7 6.642 3.811 9.211 171.413 o
2 -14 8 67.294 68.029 7.418 114.270 o
2 -14 9 43.265 33.346 5.963 203.865 o
2 -14 10 20.561 13.759 12.285 91.890 o
2 -13 0 48.852 46.309 5.488 191.086 o
2 -13 1 19.662 16.707 7.398 216.631 o
2 -13 2 286.495 305.520 11.490 16.935 o
2 -13 3 92.258 77.590 6.157 101.191 o
2 -13 4 152.232 151.979 8.426 46.021 o
2 -13 5 83.439 74.380 6.593 106.163 o
2 -13 6 0.768 -2.618 8.232 224.400 o
2 -13 7 5.806 5.158 8.639 193.786 o
2 -13 8 4.725 4.964 9.483 163.418 o
2 -13 9 0.431 -5.401 10.617 135.393 o
2 -13 10 39.899 31.823 12.275 81.879 o
2 -13 11 19.057 13.274 12.518 89.389 o
2 -12 0 690.962 762.525 16.862 3.703 o
2 -12 1 525.440 573.118 14.593 6.084 o
2 -12 2 1038.840 1061.870 19.693 1.848 o
2 -12 3 789.965 706.286 16.086 3.330 o
2 -12 4 455.959 493.414 13.963 7.788 o
2 -12 5 88.458 89.322 6.787 94.477 o
2 -12 6 33.277 34.218 4.868 275.706 o
2 -12 7 95.240 112.050 8.087 74.629 o
2 -12 8 56.054 63.869 6.661 139.748 o
2 -12 9 46.029 39.512 6.147 186.027 o
2 -12 10 56.068 57.693 6.952 138.568 o
2 -12 11 7.823 -0.941 12.101 101.668 o
2 -11 0 240.164 232.187 9.144 24.530 o
2 -11 1 164.266 138.366 7.175 47.449 o
2 -11 2 178.490 163.983 7.709 40.038 o
2 -11 3 56.232 41.170 4.819 197.233 o
2 -11 4 0.133 0.524 6.351 377.297 o
2 -11 5 51.636 24.852 4.421 244.759 o
2 -11 6 262.090 309.573 11.703 18.168 o
2 -11 7 22.456 20.226 8.096 181.157 o
2 -11 8 61.978 49.674 5.895 155.023 o
2 -11 9 0.078 4.334 9.328 173.543 o
2 -11 10 1.703 -0.165 10.210 145.516 o
2 -11 11 0.020 2.036 11.277 119.769 o
2 -10 0 287.348 262.119 9.153 19.285 o
2 -10 1 860.824 885.347 15.863 2.638 o
2 -10 2 445.546 396.422 10.928 9.381 o
2 -10 3 429.017 400.941 11.170 9.703 o
2 -10 4 189.333 169.190 7.776 37.271 o
2 -10 5 40.323 37.990 4.645 252.730 o
2 -10 6 4.165 4.295 6.807 308.861 o
2 -10 7 16.819 10.899 7.553 220.703 o
2 -10 8 74.735 72.547 7.020 110.218 o
2 -10 9 103.854 99.978 7.660 75.810 o
2 -10 10 31.765 18.714 10.462 113.870 o
2 -10 11 6.863 3.694 11.131 119.138 o
2 -10 12 0.973 1.270 12.246 101.426 o
2 -9 0 2410.070 2380.660 24.735 0.384 o
2 -9 1 2410.710 2299.070 24.153 0.392 o
2 -9 2 1001.450 804.616 14.273 2.323 o
2 -9 3 925.794 936.020 16.154 2.333 o
2 -9 4 363.645 384.069 10.821 11.951 o
2 -9 5 148.752 158.456 7.621 47.948 o
2 -9 6 496.124 531.453 14.166 6.801 o
2 -9 7 122.421 100.521 7.185 69.012 o
2 -9 8 358.676 396.616 13.895 11.242 o
2 -9 9 199.645 221.705 11.364 27.380 o
2 -9 10 24.367 15.029 10.123 126.510 o
2 -9 11 21.944 17.550 11.383 103.877 o
2 -9 12 5.185 -6.215 12.586 94.980 o
2 -8 0 1003.150 950.690 14.583 2.109 o
2 -8 1 180.286 143.602 6.089 44.572 o
2 -8 2 95.395 88.294 4.916 103.229 o
2 -8 3 112.063 97.690 5.391 84.042 o
2 -8 4 6.489 5.391 4.974 519.413 o
2 -8 5 254.192 244.210 8.862 22.807 o
2 -8 6 71.909 70.996 5.779 128.682 o
2 -8 7 18.520 10.142 7.136 239.015 o
2 -8 8 3.239 -5.275 7.922 237.600 o
2 -8 9 6.487 2.889 8.407 204.702 o
2 -8 10 1.575 -0.533 9.464 169.281 o
2 -8 11 0.481 -1.280 10.753 131.974 o
2 -8 12 0.997 -6.797 12.508 97.432 o
2 -7 0 586.885 556.547 10.472 5.677 o
2 -7 1 2119.120 2009.060 19.732 0.508 o
2 -7 2 1032.850 892.939 13.332 2.117 o
2 -7 3 1000.250 984.589 14.612 2.072 o
2 -7 4 69.699 61.465 4.615 154.207 o
2 -7 5 66.524 58.410 4.645 161.842 o
2 -7 6 541.387 533.925 13.507 6.206 o
2 -7 7 580.610 626.263 15.485 5.126 o
2 -7 8 197.154 212.610 9.958 29.831 o
2 -7 9 92.021 88.178 7.292 88.528 o
2 -7 10 2.326 1.648 9.241 175.874 o
2 -7 11 0.335 1.251 10.375 141.441 o
2 -7 12 5.877 5.236 11.791 106.672 o
2 -6 0 2691.970 2382.250 19.771 0.333 o
2 -6 1 1620.920 1358.440 15.087 0.919 o
2 -6 2 2289.990 2134.720 19.451 0.442 o
2 -6 3 1184.050 1058.100 14.447 1.605 o
2 -6 4 1386.400 1386.950 17.890 1.105 o
2 -6 5 1456.770 1365.980 19.189 1.044 o
2 -6 6 1005.060 1012.580 17.909 1.996 o
2 -6 7 775.940 849.316 17.860 3.016 o
2 -6 8 183.328 196.873 9.657 33.281 o
2 -6 9 47.690 36.642 5.100 216.540 o
2 -6 10 40.456 26.703 4.751 268.116 o
2 -6 11 42.502 35.605 5.915 204.602 o
2 -6 12 16.649 8.339 12.033 97.931 o
2 -5 0 622.995 506.940 8.610 5.621 o
2 -5 1 24.681 23.523 2.996 501.600 o
2 -5 2 103.739 128.854 4.945 81.439 o
2 -5 3 34.031 39.900 3.374 332.545 o
2 -5 4 25.747 22.243 2.928 503.341 o
2 -5 5 8.840 5.197 4.703 545.351 o
2 -5 6 5.944 1.997 5.488 454.762 o
2 -5 7 10.372 8.213 6.361 318.005 o
2 -5 8 5.185 -0.039 7.330 271.474 o
2 -5 9 6.171 3.762 8.067 221.059 o
2 -5 10 15.405 7.049 9.163 162.372 o
2 -5 11 16.146 17.831 10.908 115.008 o
2 -5 12 2.453 -0.398 11.771 109.402 o
2 -4 0 1102.570 981.738 10.889 1.857 o
2 -4 1 7273.340 7005.470 28.730 0.045 o
2 -4 2 3054.710 2876.500 20.052 0.251 o
2 -4 3 241.557 203.108 6.177 28.060 o
2 -4 4 1613.040 1540.260 17.909 0.854 o
2 -4 5 889.415 875.845 14.845 2.566 o
2 -4 6 730.465 785.573 15.485 3.449 o
2 -4 7 149.809 159.455 7.999 46.671 o
2 -4 8 150.892 139.074 8.135 48.766 o
2 -4 9 13.810 9.609 8.125 201.068 o
2 -4 10 51.610 38.872 5.624 189.559 o
2 -4 11 44.308 36.536 6.370 185.926 o
2 -4 12 16.689 7.098 11.946 99.488 o
2 -3 0 8788.720 9360.460 77.415 0.028 o
2 -3 1 2714.360 2571.720 16.503 0.315 o
2 -3 2 2732.860 2660.020 18.481 0.306 o
2 -3 3 2673.590 2531.270 20.226 0.324 o
2 -3 4 2759.530 2752.700 23.572 0.294 o
2 -3 5 3592.710 3821.710 30.883 0.168 o
2 -3 6 1042.230 1152.340 18.510 1.757 o
2 -3 7 431.232 502.742 13.458 8.223 o
2 -3 8 242.047 256.699 10.617 22.192 o
2 -3 9 106.738 120.399 8.164 67.014 o
2 -3 10 100.660 112.564 8.542 69.415 o
2 -3 11 35.172 21.826 11.461 95.666 o
2 -3 12 5.283 0.572 11.946 105.099 o
2 -2 0 201.069 192.170 4.383 36.527 o
2 -2 1 2003.680 2008.190 13.866 0.550 o
2 -2 2 127.233 121.533 4.557 71.414 o
2 -2 3 1623.290 1669.410 16.358 0.808 o
2 -2 4 0.205 3.830 4.072 867.568 o
2 -2 5 576.474 602.885 12.353 5.447 o
2 -2 6 8.215 7.379 5.498 420.006 o
2 -2 7 20.362 11.558 6.593 263.081 o
2 -2 8 1.080 -0.165 7.088 301.206 o
2 -2 9 40.558 40.249 5.207 227.616 o
2 -2 10 0.092 -2.414 9.454 171.003 o
2 -2 11 1.715 2.075 10.734 131.175 o
2 -2 12 0.180 2.618 11.849 108.353 o
2 -1 0 3882.900 4176.090 17.192 0.144 o
2 -1 1 11.787 30.863 3.287 584.921 o
2 -1 2 410.429 330.846 6.894 11.893 o
2 -1 3 3086.550 3126.380 22.447 0.234 o
2 -1 4 2636.760 2698.530 23.707 0.316 o
2 -1 5 645.390 732.379 13.614 4.207 o
2 -1 6 439.626 437.535 11.849 8.926 o
2 -1 7 100.024 98.786 6.613 84.608 o
2 -1 8 120.894 125.509 7.767 61.935 o
2 -1 9 83.517 85.861 7.670 91.913 o
2 -1 10 113.176 116.995 8.979 61.392 o
2 -1 11 38.999 30.068 11.791 88.053 o
2 -1 12 8.904 5.052 12.450 95.022 o
2 0 0 14017.400 17387.300 95.014 0.010 o
2 0 1 9076.720 10327.400 83.175 0.025 o
2 0 2 8178.890 8407.180 33.035 0.034 o
2 0 3 8204.700 8635.390 38.116 0.033 o
2 0 4 2070.030 2298.410 22.301 0.477 o
2 0 5 648.213 652.792 13.158 4.507 o
2 0 6 522.697 595.089 13.807 6.034 o
2 0 7 332.071 352.023 11.713 13.531 o
2 0 8 317.057 380.104 13.197 13.140 o
2 0 9 217.220 239.440 11.791 24.245 o
2 0 10 66.106 58.245 7.195 123.163 o
2 0 11 18.523 12.314 11.558 103.800 o
2 1 0 140.043 108.084 4.257 69.145 o
2 1 1 207.272 187.012 5.440 34.989 o
2 1 2 24.705 35.159 3.180 427.308 o
2 1 3 599.558 748.048 11.723 4.564 o
2 1 4 9.337 -1.765 4.518 606.901 o
2 1 5 83.460 93.036 5.537 107.289 o
2 1 6 51.368 35.004 4.169 237.116 o
2 1 7 62.550 62.328 5.682 148.293 o
2 1 8 27.123 19.305 8.329 167.825 o
2 1 9 6.078 4.460 9.114 175.153 o
2 1 10 2.931 2.570 10.133 145.956 o
2 1 11 0.088 -0.921 11.577 114.047 o
2 2 0 460.266 410.695 7.359 9.222 o
2 2 1 1938.190 1817.090 15.407 0.610 o
2 2 2 2440.580 2309.310 19.247 0.387 o
2 2 3 581.898 587.158 10.860 5.542 o
2 2 4 1151.970 1160.130 16.823 1.561 o
2 2 5 106.909 123.201 6.390 74.722 o
2 2 6 608.570 657.165 15.068 4.747 o
2 2 7 177.569 202.109 9.657 33.767 o
2 2 8 387.392 446.930 15.000 9.555 o
2 2 9 176.770 208.208 11.897 30.228 o
2 2 10 26.063 16.164 10.676 114.204 o
2 2 11 1.467 2.870 11.616 112.133 o
2 3 0 8346.570 8389.830 32.928 0.033 o
2 3 1 4718.220 4486.010 25.947 0.106 o
2 3 2 6348.720 6992.090 35.547 0.053 o
2 3 3 707.311 717.640 12.547 3.860 o
2 3 4 421.202 496.275 11.616 8.713 o
2 3 5 1216.330 1285.750 20.023 1.353 o
2 3 6 399.970 471.879 13.381 9.230 o
2 3 7 634.783 730.343 18.084 4.129 o
2 3 8 208.685 242.814 12.091 24.610 o
2 3 9 36.573 20.799 10.152 115.653 o
2 3 10 16.035 15.136 11.180 110.771 o
2 3 11 2.717 1.551 12.033 104.359 o
2 4 0 123.565 79.994 4.295 87.323 o
2 4 1 562.262 686.467 11.151 5.211 o
2 4 2 51.121 62.715 4.315 195.349 o
2 4 3 0.592 3.190 4.383 753.909 o
2 4 4 49.032 43.924 4.140 231.211 o
2 4 5 124.636 105.815 6.797 68.438 o
2 4 6 5.096 4.412 6.865 300.878 o
2 4 7 0.369 -0.960 8.019 237.143 o
2 4 8 3.214 -1.261 9.134 179.861 o
2 4 9 2.472 -1.173 9.977 151.748 o
2 4 10 6.697 2.734 11.015 121.912 o
2 5 0 6032.180 5804.230 32.521 0.065 o
2 5 1 683.879 596.049 11.112 4.514 o
2 5 2 1772.550 1805.600 20.701 0.682 o
2 5 3 341.351 374.974 10.191 13.081 o
2 5 4 224.148 241.612 9.056 25.770 o
2 5 5 772.943 803.675 17.153 3.150 o
2 5 6 238.184 221.948 10.278 24.370 o
2 5 7 410.619 480.150 15.776 8.548 o
2 5 8 92.577 91.911 7.864 82.881 o
2 5 9 5.094 4.732 10.530 133.359 o
2 5 10 2.434 -1.319 11.558 113.449 o
2 6 0 2037.060 2200.300 21.797 0.502 o
2 6 1 121.549 123.094 5.915 69.286 o
2 6 2 243.643 306.150 9.192 20.891 o
2 6 3 508.356 528.282 12.673 6.763 o
2 6 4 906.586 891.049 17.880 2.442 o
2 6 5 889.287 963.160 19.538 2.359 o
2 6 6 540.551 603.942 16.784 5.575 o
2 6 7 177.472 185.373 10.424 33.928 o
2 6 8 40.980 31.106 10.598 102.647 o
2 6 9 4.138 0.989 10.850 127.391 o
2 6 10 12.098 8.736 12.246 96.327 o
2 7 0 45.231 48.792 4.451 226.261 o
2 7 1 26.862 33.346 3.801 372.654 o
2 7 2 47.303 41.471 4.305 235.589 o
2 7 3 234.169 211.214 8.843 26.511 o
2 7 4 78.579 82.312 6.555 107.329 o
2 7 5 0.164 -0.873 7.505 271.103 o
2 7 6 2.424 -0.262 8.572 204.801 o
2 7 7 14.774 7.757 9.318 157.842 o
2 7 8 1.315 1.435 10.094 148.627 o
2 7 9 3.259 2.366 11.335 117.002 o
2 8 0 426.783 409.978 11.015 9.666 o
2 8 1 402.739 415.078 11.412 10.173 o
2 8 2 292.128 311.124 10.491 16.864 o
2 8 3 581.944 588.583 14.816 5.338 o
2 8 4 719.542 772.851 17.890 3.480 o
2 8 5 514.013 557.846 16.348 6.191 o
2 8 6 179.347 181.941 10.297 34.102 o
2 8 7 32.186 26.413 10.230 115.310 o
2 8 8 0.134 1.842 10.579 136.015 o
2 8 9 1.231 2.298 12.062 104.258 o
2 9 0 372.774 397.159 11.500 11.299 o
2 9 1 420.145 447.027 12.402 9.190 o
2 9 2 802.465 850.285 17.822 2.901 o
2 9 3 1145.920 1256.080 22.699 1.460 o
2 9 4 461.372 481.139 15.136 7.667 o
2 9 5 191.852 200.509 10.802 30.277 o
2 9 6 20.130 16.164 9.725 138.305 o
2 9 7 8.095 -0.155 10.530 132.968 o
2 9 8 4.357 3.597 11.539 112.243 o
2 10 0 4.138 2.618 6.351 355.091 o
2 10 1 65.194 58.953 5.585 148.448 o
2 10 2 11.249 5.381 7.495 240.812 o
2 10 3 6.051 4.354 7.999 224.291 o
2 10 4 16.906 9.512 8.882 168.507 o
2 10 5 17.321 7.059 9.367 154.302 o
2 10 6 0.677 -0.175 9.977 153.096 o
2 10 7 0.791 -4.111 11.015 125.630 o
2 10 8 6.910 3.849 11.994 103.059 o
2 11 0 371.220 362.582 12.314 11.742 o
2 11 1 356.047 386.493 12.935 11.707 o
2 11 2 533.332 567.213 16.319 5.899 o
2 11 3 300.575 331.981 13.235 14.833 o
2 11 4 115.149 112.758 8.484 63.654 o
2 11 5 35.971 36.730 5.275 243.867 o
2 11 6 1.476 1.813 10.550 135.964 o
2 11 7 9.737 5.527 11.839 104.250 o
2 12 0 296.246 368.158 13.109 14.265 o
2 12 1 525.648 591.676 17.162 5.783 o
2 12 2 389.231 467.011 15.727 9.152 o
2 12 3 115.815 112.312 8.795 62.099 o
2 12 4 56.666 46.212 6.225 159.570 o
2 12 5 12.025 3.500 10.598 127.911 o
2 12 6 7.222 4.703 11.500 111.491 o
2 13 0 0.562 0.659 8.310 220.061 o
2 13 1 0.462 -2.356 9.211 179.736 o
2 13 2 19.282 21.545 9.590 140.102 o
2 13 3 18.579 10.375 10.026 134.516 o
2 13 4 1.371 3.888 10.356 140.443 o
2 13 5 0.177 -0.301 11.364 118.327 o
2 14 0 300.857 367.334 14.399 13.639 o
2 14 1 177.968 192.316 11.209 32.135 o
2 14 2 148.719 159.290 10.637 40.813 o
2 14 3 17.527 16.299 10.996 113.052 o
2 14 4 3.511 1.445 11.364 116.508 o
2 14 5 9.250 9.464 12.314 96.180 o
2 15 0 114.419 123.075 9.822 56.359 o
2 15 1 30.280 21.254 11.267 100.853 o
2 15 2 10.865 11.471 10.850 120.811 o
2 15 3 3.198 1.154 11.354 116.911 o
2 15 4 7.327 4.092 12.256 98.646 o
2 16 0 18.956 12.004 11.141 110.786 o
2 16 1 3.500 1.290 11.335 117.137 o
2 16 2 0.252 -2.250 12.062 105.008 o
2 17 0 25.141 22.137 12.431 86.947 o
2 17 1 12.946 9.367 12.314 94.925 o
3 -20 2 38.682 31.387 13.342 71.816 o
3 -20 3 31.076 38.465 13.420 72.198 o
3 -19 0 77.511 75.098 8.542 91.542 o
3 -19 1 36.444 28.226 12.508 81.182 o
3 -19 2 35.817 32.812 6.147 215.382 o
3 -19 3 28.779 28.924 12.372 85.212 o
3 -19 4 4.230 3.083 11.791 107.749 o
3 -19 5 3.916 5.284 11.868 106.071 o
3 -19 6 10.840 9.522 12.605 91.478 o
3 -18 0 0.173 1.338 10.937 127.387 o
3 -18 1 1.052 4.974 10.646 132.851 o
3 -18 2 0.056 -1.726 10.482 139.146 o
3 -18 3 0.003 -2.521 10.724 132.957 o
3 -18 4 6.475 -2.734 10.976 123.577 o
3 -18 5 0.140 -3.782 11.267 120.388 o
3 -18 6 2.400 0.650 11.703 110.555 o
3 -18 7 1.761 -0.087 12.062 104.477 o
3 -17 0 204.987 224.469 12.305 25.648 o
3 -17 1 102.511 133.236 9.619 59.444 o
3 -17 2 50.446 56.161 6.826 149.184 o
3 -17 3 5.837 7.728 9.977 146.291 o
3 -17 4 19.144 11.771 10.113 131.567 o
3 -17 5 105.287 108.395 9.076 65.559 o
3 -17 6 87.041 87.005 8.581 82.119 o
3 -17 7 80.274 85.201 8.465 87.436 o
3 -17 8 13.210 13.080 12.295 94.467 o
3 -16 0 35.265 30.155 5.420 250.208 o
3 -16 1 64.271 70.511 7.039 120.926 o
3 -16 2 43.143 35.217 5.314 223.688 o
3 -16 3 17.411 10.036 9.386 152.264 o
3 -16 4 143.393 137.464 9.551 47.168 o
3 -16 5 162.724 158.602 10.482 38.556 o
3 -16 6 58.404 52.428 7.098 136.399 o
3 -16 7 19.790 15.427 11.170 108.995 o
3 -16 8 0.595 4.809 11.073 123.221 o
3 -16 9 0.021 -0.175 11.888 108.197 o
3 -15 0 10.404 7.582 8.484 192.470 o
3 -15 1 12.391 5.110 8.339 197.490 o
3 -15 2 6.414 0.039 8.222 215.833 o
3 -15 3 3.797 4.412 8.271 214.094 o
3 -15 4 1.902 -1.144 8.988 187.105 o
3 -15 5 35.603 19.024 9.599 127.528 o
3 -15 6 52.013 31.077 10.424 98.912 o
3 -15 7 35.339 17.599 10.569 110.219 o
3 -15 8 8.911 4.363 10.569 130.208 o
3 -15 9 1.399 1.551 11.267 119.448 o
3 -15 10 2.127 -0.407 12.877 91.645 o
3 -14 0 17.459 20.071 8.261 182.552 o
3 -14 1 37.681 45.582 5.343 223.438 o
3 -14 2 166.375 169.927 8.911 39.827 o
3 -14 3 412.265 362.912 13.158 10.329 o
3 -14 4 359.237 398.866 13.992 11.168 o
3 -14 5 357.458 421.924 14.816 10.697 o
3 -14 6 33.718 39.270 5.343 244.107 o
3 -14 7 40.044 44.137 5.760 205.412 o
3 -14 8 3.884 2.182 10.142 145.146 o
3 -14 9 3.321 3.209 10.928 125.468 o
3 -14 10 20.936 12.654 12.275 92.085 o
3 -13 0 199.965 223.460 10.007 28.732 o
3 -13 1 253.271 244.491 10.200 22.037 o
3 -13 2 244.482 260.112 10.559 21.884 o
3 -13 3 482.195 424.192 13.623 7.980 o
3 -13 4 314.167 332.631 12.411 14.499 o
3 -13 5 113.971 119.080 7.951 65.236 o
3 -13 6 24.711 24.115 8.620 159.218 o
3 -13 7 22.226 15.039 9.163 151.489 o
3 -13 8 22.100 17.444 9.890 132.385 o
3 -13 9 31.533 23.174 11.316 99.085 o
3 -13 10 26.945 24.221 12.217 88.589 o
3 -12 0 56.336 57.896 5.323 168.560 o
3 -12 1 54.074 35.653 4.848 208.576 o
3 -12 2 163.320 148.867 7.912 44.798 o
3 -12 3 13.393 6.477 6.943 267.975 o
3 -12 4 93.677 74.196 6.487 98.694 o
3 -12 5 198.349 202.991 9.725 30.585 o
3 -12 6 6.982 3.646 7.602 245.518 o
3 -12 7 31.721 28.866 4.615 306.821 o
3 -12 8 0.146 2.763 8.921 190.368 o
3 -12 9 0.247 1.600 10.045 150.770 o
3 -12 10 9.898 4.218 11.316 113.875 o
3 -12 11 0.296 -3.481 12.440 98.713 o
3 -11 0 19.714 17.667 6.147 283.236 o
3 -11 1 1332.670 1421.590 21.429 1.131 o
3 -11 2 1202.630 1148.470 19.771 1.473 o
3 -11 3 1295.510 1296.410 21.244 1.241 o
3 -11 4 738.178 860.874 17.754 3.165 o
3 -11 5 123.219 134.274 7.738 59.512 o
3 -11 6 133.059 162.742 8.833 48.551 o
3 -11 7 74.415 79.442 6.768 110.158 o
3 -11 8 85.931 89.380 7.350 91.737 o
3 -11 9 140.455 160.182 10.482 42.779 o
3 -11 10 52.728 48.549 6.535 157.336 o
3 -11 11 14.660 6.593 11.858 101.762 o
3 -10 0 733.858 701.661 14.418 3.697 o
3 -10 1 2760.250 2659.220 28.110 0.299 o
3 -10 2 750.358 605.202 13.497 3.922 o
3 -10 3 451.420 430.796 11.771 8.749 o
3 -10 4 83.163 86.403 6.002 106.587 o
3 -10 5 1.531 2.977 6.361 364.513 o
3 -10 6 217.058 214.656 9.386 27.819 o
3 -10 7 49.262 45.156 5.061 202.878 o
3 -10 8 93.365 80.624 7.136 91.338 o
3 -10 9 101.769 113.708 8.659 68.070 o
3 -10 10 11.742 6.157 10.559 128.154 o
3 -10 11 5.660 4.809 11.461 112.889 o
3 -9 0 533.270 532.539 12.014 6.423 o
3 -9 1 575.754 589.039 12.402 5.528 o
3 -9 2 345.532 287.640 8.930 15.147 o
3 -9 3 211.073 177.025 7.408 33.266 o
3 -9 4 271.522 279.369 9.735 19.526 o
3 -9 5 3.753 2.027 5.895 411.812 o
3 -9 6 17.259 6.555 6.758 268.973 o
3 -9 7 0.840 -4.528 7.747 253.036 o
3 -9 8 5.928 3.655 8.378 206.309 o
3 -9 9 3.390 2.618 9.182 176.454 o
3 -9 10 3.456 -1.134 10.317 141.392 o
3 -9 11 0.576 -2.308 11.335 118.756 o
3 -8 0 5737.250 5712.840 35.915 0.070 o
3 -8 1 3753.910 3347.920 27.770 0.173 o
3 -8 2 2154.610 2226.990 23.213 0.463 o
3 -8 3 791.826 781.209 14.195 3.174 o
3 -8 4 501.231 590.134 12.983 6.402 o
3 -8 5 174.155 187.584 8.164 37.832 o
3 -8 6 575.045 592.811 14.971 5.379 o
3 -8 7 551.132 583.803 15.950 5.625 o
3 -8 8 343.732 403.869 14.147 11.534 o
3 -8 9 130.545 151.175 9.541 48.722 o
3 -8 10 21.635 14.903 10.501 120.573 o
3 -8 11 1.127 -1.319 11.180 121.805 o
3 -7 0 1509.860 1264.530 15.941 1.050 o
3 -7 1 498.883 449.471 9.657 7.808 o
3 -7 2 61.936 42.858 3.675 206.590 o
3 -7 3 20.015 9.822 4.509 446.980 o
3 -7 4 318.315 333.232 9.512 15.206 o
3 -7 5 501.780 529.203 12.838 6.842 o
3 -7 6 509.942 510.131 13.623 6.799 o
3 -7 7 289.547 335.462 11.888 15.801 o
3 -7 8 91.581 75.835 6.758 97.426 o
3 -7 9 0.110 2.628 8.659 202.075 o
3 -7 10 3.490 -7.272 9.968 151.272 o
3 -7 11 7.639 7.243 11.034 119.852 o
3 -6 0 1445.100 1410.620 15.718 1.043 o
3 -6 1 676.990 599.899 10.385 4.576 o
3 -6 2 223.282 192.432 6.390 31.148 o
3 -6 3 28.338 16.813 2.705 526.618 o
3 -6 4 7.377 3.685 4.625 585.715 o
3 -6 5 50.896 29.661 4.063 251.242 o
3 -6 6 169.870 160.900 8.087 41.557 o
3 -6 7 103.108 87.053 6.816 85.077 o
3 -6 8 22.277 17.405 8.038 185.557 o
3 -6 9 12.059 6.206 8.775 179.857 o
3 -6 10 1.784 2.094 9.522 166.100 o
3 -6 11 1.644 -1.338 11.190 121.348 o
3 -6 12 1.660 0.194 12.363 99.488 o
3 -5 0 2668.080 2434.410 19.179 0.333 o
3 -5 1 1344.310 1078.840 13.216 1.347 o
3 -5 2 2151.520 2215.220 19.761 0.468 o
3 -5 3 353.923 317.980 8.242 14.193 o
3 -5 4 3208.030 3291.540 28.342 0.214 o
3 -5 5 1575.790 1576.970 21.371 0.861 o
3 -5 6 1491.710 1566.390 22.941 0.921 o
3 -5 7 125.028 121.446 7.534 62.010 o
3 -5 8 102.011 110.130 7.553 74.753 o
3 -5 9 0.904 1.047 8.300 219.737 o
3 -5 10 13.921 6.991 9.997 139.954 o
3 -5 11 47.071 41.529 6.690 168.116 o
3 -5 12 17.576 11.762 12.751 87.109 o
3 -4 0 157.417 129.872 4.790 55.865 o
3 -4 1 36.405 28.206 3.190 363.729 o
3 -4 2 480.655 479.393 8.988 7.920 o
3 -4 3 886.989 891.243 13.197 2.567 o
3 -4 4 1271.670 1308.300 17.725 1.277 o
3 -4 5 673.558 652.142 13.488 4.300 o
3 -4 6 238.468 231.004 9.114 24.782 o
3 -4 7 13.494 8.688 6.710 280.110 o
3 -4 8 26.773 13.507 7.689 194.476 o
3 -4 9 30.177 26.064 9.114 139.747 o
3 -4 10 54.008 37.961 5.808 180.910 o
3 -4 11 37.010 30.272 6.332 208.800 o
3 -3 0 23.235 10.045 3.122 593.687 o
3 -3 1 340.871 324.437 6.923 14.936 o
3 -3 2 297.727 277.013 6.894 18.893 o
3 -3 3 132.600 98.863 4.906 73.464 o
3 -3 4 1072.250 1091.950 15.989 1.775 o
3 -3 5 360.895 348.988 10.239 12.814 o
3 -3 6 215.712 216.120 8.833 28.415 o
3 -3 7 43.489 40.831 4.829 231.309 o
3 -3 8 12.016 7.001 7.408 242.345 o
3 -3 9 0.157 2.511 8.445 212.328 o
3 -3 10 1.332 3.655 9.687 160.300 o
3 -3 11 15.556 11.742 11.432 107.378 o
3 -2 0 2654.920 2699.150 17.298 0.315 o
3 -2 1 368.052 317.194 6.797 13.855 o
3 -2 2 1798.260 1972.140 17.269 0.635 o
3 -2 3 5217.610 5308.310 31.513 0.083 o
3 -2 4 3012.000 3255.300 27.460 0.234 o
3 -2 5 1134.070 1181.060 18.219 1.565 o
3 -2 6 137.333 154.898 7.544 51.933 o
3 -2 7 55.746 48.307 4.761 191.468 o
3 -2 8 21.621 20.944 7.980 185.983 o
3 -2 9 98.889 102.606 8.523 72.577 o
3 -2 10 86.543 100.647 8.940 76.285 o
3 -2 11 43.178 37.699 6.419 185.573 o
3 -1 0 821.703 770.582 9.667 3.126 o
3 -1 1 2401.110 2483.390 17.841 0.378 o
3 -1 2 5746.820 5337.980 28.837 0.073 o
3 -1 3 2771.530 2807.830 23.426 0.289 o
3 -1 4 1151.810 1027.810 15.601 1.685 o
3 -1 5 32.298 17.822 3.258 430.704 o
3 -1 6 33.636 21.487 3.326 399.538 o
3 -1 7 24.718 20.062 7.088 216.658 o
3 -1 8 94.535 90.534 7.330 85.891 o
3 -1 9 154.330 176.976 10.404 38.568 o
3 -1 10 43.565 27.101 11.199 94.073 o
3 -1 11 8.734 3.917 11.577 109.575 o
3 0 0 21.002 41.898 3.481 407.286 o
3 0 1 3349.600 3395.900 21.341 0.200 o
3 0 2 3034.420 2680.120 21.119 0.264 o
3 0 3 4449.450 4556.950 30.592 0.113 o
3 0 4 1640.610 1451.970 18.811 0.864 o
3 0 5 148.002 157.070 7.185 49.349 o
3 0 6 41.195 32.492 4.111 281.650 o
3 0 7 2.832 -0.359 6.894 312.549 o
3 0 8 0.361 -6.099 8.494 211.430 o
3 0 9 23.896 25.559 10.317 119.362 o
3 0 10 13.281 6.196 10.840 121.136 o
3 0 11 13.525 16.862 12.043 97.354 o
3 1 0 7115.160 7286.550 30.146 0.045 o
3 1 1 10708.100 11389.100 40.870 0.019 o
3 1 2 4540.460 4785.480 29.205 0.107 o
3 1 3 1813.600 1818.720 19.955 0.660 o
3 1 4 36.533 41.791 3.840 293.373 o
3 1 5 11.996 8.862 5.478 394.538 o
3 1 6 146.930 195.322 8.824 41.390 o
3 1 7 275.979 311.192 11.820 17.228 o
3 1 8 289.941 351.461 14.108 14.537 o
3 1 9 247.833 285.041 13.740 18.678 o
3 1 10 38.551 26.064 12.072 85.698 o
3 1 11 9.433 6.729 12.275 97.170 o
3 2 0 4250.190 4075.320 24.134 0.130 o
3 2 1 496.346 475.457 9.163 7.653 o
3 2 2 1179.060 1204.580 15.485 1.487 o
3 2 3 23.838 13.652 2.744 608.850 o
3 2 4 21.299 23.194 3.219 519.399 o
3 2 5 491.640 508.414 13.061 7.142 o
3 2 6 100.026 95.276 6.671 85.356 o
3 2 7 384.880 459.807 14.661 9.521 o
3 2 8 93.183 83.485 7.650 86.593 o
3 2 9 6.519 1.057 10.152 143.412 o
3 2 10 0.011 -0.107 10.937 127.818 o
3 3 0 3569.590 3265.060 23.261 0.188 o
3 3 1 3931.810 4029.020 27.179 0.144 o
3 3 2 1168.660 1076.700 15.320 1.611 o
3 3 3 521.190 533.925 11.655 6.607 o
3 3 4 10.706 12.566 5.469 392.305 o
3 3 5 0.144 0.039 6.167 401.244 o
3 3 6 64.097 53.979 5.653 152.748 o
3 3 7 62.038 78.966 7.117 117.919 o
3 3 8 80.498 88.013 8.029 90.136 o
3 3 9 40.020 37.311 6.002 205.455 o
3 3 10 4.775 2.725 11.325 116.419 o
3 4 0 7363.540 7591.480 37.709 0.042 o
3 4 1 2659.030 2693.800 23.795 0.313 o
3 4 2 387.617 359.897 9.454 11.798 o
3 4 3 232.602 248.748 8.475 24.929 o
3 4 4 122.182 135.282 6.933 62.594 o
3 4 5 1133.260 1305.710 21.981 1.446 o
3 4 6 431.662 514.387 15.533 7.852 o
3 4 7 448.686 500.405 16.416 7.567 o
3 4 8 103.678 107.173 8.756 68.134 o
3 4 9 8.100 5.808 10.588 129.808 o
3 4 10 2.939 3.413 11.597 111.778 o
3 5 0 117.761 96.992 5.323 80.960 o
3 5 1 69.975 72.829 4.838 141.953 o
3 5 2 54.338 46.387 4.169 211.336 o
3 5 3 163.267 132.635 6.710 49.526 o
3 5 4 351.545 381.636 11.820 12.200 o
3 5 5 278.437 280.678 11.403 18.199 o
3 5 6 82.581 72.712 6.768 105.913 o
3 5 7 23.769 14.312 9.386 144.454 o
3 5 8 0.438 0.572 9.871 156.375 o
3 5 9 0.661 0.814 10.850 129.316 o
3 6 0 1560.000 1457.120 19.082 0.920 o
3 6 1 199.678 195.700 7.544 33.449 o
3 6 2 34.150 38.135 4.140 299.055 o
3 6 3 6.870 -0.204 6.322 352.052 o
3 6 4 51.216 47.250 5.420 186.798 o
3 6 5 191.150 197.591 9.900 31.745 o
3 6 6 147.582 151.126 9.803 43.905 o
3 6 7 57.081 52.874 6.632 146.120 o
3 6 8 40.540 28.507 11.170 95.559 o
3 6 9 4.946 3.083 11.529 112.285 o
3 7 0 46.994 40.695 4.344 236.592 o
3 7 1 119.666 130.105 6.807 65.192 o
3 7 2 219.619 249.272 9.415 25.559 o
3 7 3 923.387 1005.030 19.441 2.200 o
3 7 4 1093.940 1194.390 22.747 1.591 o
3 7 5 589.444 640.245 17.802 4.854 o
3 7 6 198.193 247.129 11.810 25.706 o
3 7 7 33.467 21.865 10.385 113.211 o
3 7 8 6.066 4.751 10.860 125.097 o
3 7 9 5.414 1.222 12.227 100.253 o
3 8 0 18.108 15.020 5.895 311.603 o
3 8 1 305.845 291.169 10.346 16.707 o
3 8 2 436.704 434.975 12.780 8.900 o
3 8 3 399.550 419.752 13.507 9.853 o
3 8 4 53.729 52.418 6.177 160.314 o
3 8 5 8.957 14.166 8.998 170.876 o
3 8 6 13.931 8.795 9.483 153.243 o
3 8 7 0.447 0.621 10.239 145.337 o
3 8 8 0.935 1.396 11.383 117.279 o
3 9 0 66.545 63.608 5.498 144.425 o
3 9 1 0.618 3.064 6.516 351.417 o
3 9 2 103.453 93.598 7.059 81.355 o
3 9 3 448.526 493.075 15.175 7.784 o
3 9 4 323.667 360.730 13.837 13.064 o
3 9 5 151.160 175.832 10.530 39.000 o
3 9 6 27.596 22.621 10.540 113.834 o
3 9 7 10.420 9.347 11.209 114.441 o
3 9 8 2.430 3.287 12.295 99.820 o
3 10 0 270.274 315.071 11.422 17.634 o
3 10 1 593.729 660.142 16.775 4.783 o
3 10 2 916.804 1033.630 21.865 2.149 o
3 10 3 568.949 616.741 17.938 5.143 o
3 10 4 116.066 124.529 9.173 58.239 o
3 10 5 11.655 5.585 9.890 145.044 o
3 10 6 6.995 6.400 10.763 126.287 o
3 10 7 16.135 6.138 12.053 98.248 o
3 11 0 200.135 196.834 9.667 30.832 o
3 11 1 134.952 132.626 8.416 53.550 o
3 11 2 51.733 30.921 5.954 188.601 o
3 11 3 8.538 -1.959 9.444 163.468 o
3 11 4 1.313 -2.783 9.667 162.506 o
3 11 5 0.034 -0.562 10.375 142.035 o
3 11 6 10.001 5.207 11.548 109.275 o
3 12 0 138.671 138.715 8.891 50.125 o
3 12 1 269.613 291.664 12.479 17.858 o
3 12 2 270.082 303.561 13.371 17.029 o
3 12 3 111.386 112.797 8.698 64.141 o
3 12 4 29.634 32.958 5.372 266.582 o
3 12 5 6.618 3.122 11.354 114.902 o
3 12 6 12.892 8.746 12.673 90.034 o
3 13 0 345.610 414.118 15.310 11.035 o
3 13 1 300.560 322.896 14.011 14.738 o
3 13 2 134.903 136.330 10.181 47.584 o
3 13 3 19.165 13.740 10.811 116.312 o
3 13 4 10.975 11.636 11.296 111.974 o
3 13 5 26.721 23.048 12.886 80.979 o
3 14 0 20.627 13.255 10.191 128.267 o
3 14 1 0.410 -4.654 10.482 138.928 o
3 14 2 5.072 2.812 10.656 130.899 o
3 14 3 2.121 1.522 11.092 122.854 o
3 14 4 7.465 4.373 12.188 99.615 o
3 15 0 181.546 202.836 12.178 29.574 o
3 15 1 89.863 85.453 8.533 81.368 o
3 15 2 35.094 33.510 12.198 84.156 o
3 15 3 2.994 -0.543 12.305 100.020 o
3 16 0 35.004 21.215 12.266 85.627 o
3 16 1 13.521 8.824 12.188 96.671 o
3 17 0 4.369 3.365 12.246 99.933 o
4 -20 2 0.101 -0.621 12.508 97.704 o
4 -20 3 0.446 -0.271 12.314 100.693 o
4 -19 0 69.665 73.546 8.698 95.563 o
4 -19 1 34.636 22.776 12.324 84.801 o
4 -19 2 17.666 7.951 12.140 96.038 o
4 -19 3 19.898 20.624 11.917 95.993 o
4 -19 4 1.799 -0.970 11.907 107.187 o
4 -19 5 13.059 11.723 12.188 96.316 o
4 -19 6 9.832 3.200 12.586 93.056 o
4 -18 0 126.152 139.588 10.840 47.262 o
4 -18 1 43.642 47.841 6.380 176.448 o
4 -18 2 22.420 26.733 11.063 106.594 o
4 -18 3 12.890 15.776 10.957 116.395 o
4 -18 4 3.256 -2.172 10.908 126.792 o
4 -18 5 51.191 48.045 6.758 155.243 o
4 -18 6 56.914 49.228 7.243 137.500 o
4 -18 7 54.920 48.394 7.650 132.983 o
4 -17 0 22.540 10.181 10.550 120.501 o
4 -17 1 20.013 10.288 10.220 129.070 o
4 -17 2 7.461 3.384 9.754 153.173 o
4 -17 3 4.475 0.844 9.803 155.175 o
4 -17 4 2.670 2.056 9.958 151.404 o
4 -17 5 23.410 24.619 11.170 104.894 o
4 -17 6 10.255 12.053 11.190 114.228 o
4 -17 7 1.281 -0.892 11.994 105.829 o
4 -17 8 0.188 2.831 12.149 103.044 o
4 -16 0 219.766 260.742 12.489 22.479 o
4 -16 1 40.817 39.241 5.624 213.890 o
4 -16 2 9.524 3.937 8.998 175.922 o
4 -16 3 19.135 8.067 9.260 155.191 o
4 -16 4 46.258 27.547 10.133 107.537 o
4 -16 5 76.716 75.776 7.883 98.218 o
4 -16 6 77.386 76.087 7.718 99.253 o
4 -16 7 43.713 39.270 6.128 191.453 o
4 -16 8 19.341 13.080 11.946 97.280 o
4 -16 9 7.735 4.897 12.178 99.582 o
4 -15 0 18.760 17.434 8.833 163.487 o
4 -15 1 4.159 8.339 8.310 208.640 o
4 -15 2 71.036 69.687 6.409 122.498 o
4 -15 3 261.925 266.841 11.839 19.508 o
4 -15 4 427.886 516.802 16.619 7.758 o
4 -15 5 363.336 449.732 16.096 9.899 o
4 -15 6 86.170 93.841 8.106 84.270 o
4 -15 7 30.720 30.669 11.073 101.215 o
4 -15 8 4.455 4.538 10.899 125.162 o
4 -15 9 0.091 -4.014 11.858 108.703 o
4 -14 0 67.564 64.160 6.060 134.432 o
4 -14 1 20.130 10.627 7.873 200.678 o
4 -14 2 16.018 8.775 7.854 210.096 o
4 -14 3 73.632 60.883 6.138 128.014 o
4 -14 4 38.934 34.567 5.323 236.227 o
4 -14 5 8.594 -2.812 9.289 168.653 o
4 -14 6 0.069 2.725 8.940 189.663 o
4 -14 7 4.969 0.281 9.464 166.007 o
4 -14 8 0.093 -0.747 10.453 139.898 o
4 -14 9 4.888 2.589 11.228 118.368 o
4 -14 10 4.047 -3.151 13.003 89.380 o
4 -13 0 33.934 27.450 4.354 314.453 o
4 -13 1 75.933 73.730 6.273 116.873 o
4 -13 2 572.097 600.936 15.747 5.323 o
4 -13 3 459.036 399.234 13.216 8.745 o
4 -13 4 286.314 310.271 12.421 16.409 o
4 -13 5 369.648 440.560 14.777 10.121 o
4 -13 6 10.900 7.088 8.620 186.682 o
4 -13 7 56.135 41.306 5.624 177.999 o
4 -13 8 21.376 16.173 10.230 125.917 o
4 -13 9 3.645 0.301 10.782 129.434 o
4 -13 10 27.792 17.957 12.819 82.188 o
4 -12 0 201.373 207.423 9.153 30.530 o
4 -12 1 1012.320 1079.940 20.081 1.882 o
4 -12 2 1227.920 1299.060 22.369 1.318 o
4 -12 3 862.289 922.261 19.073 2.519 o
4 -12 4 708.703 775.265 18.113 3.527 o
4 -12 5 45.206 50.614 5.265 200.450 o
4 -12 6 81.340 90.563 7.136 96.364 o
4 -12 7 14.341 9.580 8.940 169.419 o
4 -12 8 48.156 40.686 5.653 194.216 o
4 -12 9 40.200 34.790 6.089 204.992 o
4 -12 10 29.913 28.565 12.246 86.367 o
4 -11 0 10.733 7.204 6.341 320.187 o
4 -11 1 323.735 323.710 10.821 14.783 o
4 -11 2 157.505 145.987 7.728 47.033 o
4 -11 3 2.625 -0.165 6.700 331.088 o
4 -11 4 0.095 -1.387 6.972 314.311 o
4 -11 5 95.428 91.116 6.749 89.226 o
4 -11 6 7.330 4.964 7.650 240.564 o
4 -11 7 0.046 -0.398 8.416 215.801 o
4 -11 8 5.678 2.676 9.260 171.252 o
4 -11 9 4.064 -0.921 10.579 134.220 o
4 -11 10 0.052 -2.899 11.296 119.810 o
4 -11 11 0.562 1.862 12.091 104.072 o
4 -10 0 480.554 479.025 12.275 7.649 o
4 -10 1 2024.800 2012.680 24.919 0.534 o
4 -10 2 1483.430 1297.370 20.081 1.049 o
4 -10 3 1407.670 1528.970 22.437 1.006 o
4 -10 4 356.097 431.096 12.624 11.068 o
4 -10 5 78.366 72.402 5.857 119.651 o
4 -10 6 140.645 160.910 8.785 46.944 o
4 -10 7 75.989 62.337 6.400 121.252 o
4 -10 8 73.305 68.446 6.991 113.740 o
4 -10 9 60.655 59.079 7.020 131.217 o
4 -10 10 19.388 17.831 11.568 102.044 o
4 -10 11 4.482 7.146 11.907 104.827 o
4 -9 0 5112.790 5065.730 36.943 0.088 o
4 -9 1 3676.630 3641.040 31.494 0.168 o
4 -9 2 1329.190 1332.870 19.267 1.189 o
4 -9 3 438.217 459.312 11.868 8.715 o
4 -9 4 95.216 94.781 6.080 92.726 o
4 -9 5 103.447 115.657 7.088 75.088 o
4 -9 6 309.172 330.459 12.043 14.906 o
4 -9 7 201.515 213.919 10.288 28.820 o
4 -9 8 184.732 195.506 10.666 31.759 o
4 -9 9 79.915 77.890 7.709 96.841 o
4 -9 10 20.582 15.863 11.025 111.032 o
4 -9 11 1.717 -0.087 11.732 110.411 o
4 -8 0 164.931 169.433 7.001 43.655 o
4 -8 1 66.687 69.386 4.761 150.597 o
4 -8 2 1.181 0.562 4.635 688.894 o
4 -8 3 220.272 213.609 8.019 28.730 o
4 -8 4 0.038 -2.153 5.507 503.813 o
4 -8 5 0.098 -0.330 5.924 435.068 o
4 -8 6 46.949 44.884 5.498 196.568 o
4 -8 7 0.305 -2.346 7.951 241.315 o
4 -8 8 8.857 3.811 8.736 186.758 o
4 -8 9 16.953 15.252 9.522 146.569 o
4 -8 10 8.557 4.800 10.491 132.130 o
4 -8 11 0.000 -2.434 11.732 111.086 o
4 -7 0 3601.400 3387.760 27.062 0.181 o
4 -7 1 3451.740 3012.530 25.802 0.206 o
4 -7 2 646.169 684.256 12.789 4.410 o
4 -7 3 344.207 420.120 10.521 12.061 o
4 -7 4 182.276 186.362 7.902 36.809 o
4 -7 5 382.911 412.819 11.917 10.678 o
4 -7 6 503.116 544.087 14.932 6.545 o
4 -7 7 428.098 499.979 15.049 8.112 o
4 -7 8 158.574 195.748 10.210 36.515 o
4 -7 9 60.556 57.315 6.700 137.562 o
4 -7 10 6.928 3.083 10.424 135.364 o
4 -7 11 0.175 -0.436 11.248 120.787 o
4 -6 0 904.223 816.610 12.605 2.647 o
4 -6 1 978.276 923.589 13.546 2.223 o
4 -6 2 288.160 292.129 8.106 18.614 o
4 -6 3 465.773 445.844 10.608 8.411 o
4 -6 4 1897.880 1983.540 23.756 0.586 o
4 -6 5 1331.910 1338.730 20.866 1.177 o
4 -6 6 1079.340 1125.030 20.886 1.694 o
4 -6 7 190.919 213.706 9.813 30.763 o
4 -6 8 86.571 81.129 6.768 99.175 o
4 -6 9 4.159 2.521 9.114 178.246 o
4 -6 10 0.041 1.154 10.065 150.504 o
4 -6 11 12.878 15.136 11.907 100.008 o
4 -5 0 42.703 58.837 3.830 236.428 o
4 -5 1 32.053 49.247 3.597 307.627 o
4 -5 2 1.406 2.666 3.840 950.169 o
4 -5 3 218.734 205.891 7.166 30.188 o
4 -5 4 0.496 1.891 5.052 583.072 o
4 -5 5 26.463 21.390 4.354 373.309 o
4 -5 6 34.645 24.328 4.218 326.599 o
4 -5 7 56.978 57.906 5.527 163.438 o
4 -5 8 14.528 6.826 8.077 204.245 o
4 -5 9 0.007 -0.320 8.853 195.105 o
4 -5 10 0.291 -0.989 10.297 144.013 o
4 -5 11 1.689 1.212 11.723 110.364 o
4 -4 0 626.098 570.461 9.657 5.207 o
4 -4 1 992.453 983.900 13.226 2.104 o
4 -4 2 1114.830 1207.710 15.359 1.591 o
4 -4 3 1792.710 1757.740 19.906 0.685 o
4 -4 4 2484.170 2466.440 25.821 0.360 o
4 -4 5 1355.030 1382.780 20.944 1.129 o
4 -4 6 488.500 524.530 14.157 6.968 o
4 -4 7 80.840 85.550 6.477 104.683 o
4 -4 8 55.768 64.577 6.167 148.253 o
4 -4 9 0.511 1.697 9.008 186.920 o
4 -4 10 14.815 11.325 10.598 123.856 o
4 -4 11 23.822 17.676 12.208 91.049 o
4 -3 0 396.224 333.212 7.330 12.305 o
4 -3 1 3089.060 3217.160 23.029 0.230 o
4 -3 2 2860.630 2748.150 22.893 0.281 o
4 -3 3 4186.900 4340.490 31.212 0.126 o
4 -3 4 2047.180 2006.500 23.048 0.529 o
4 -3 5 681.524 796.015 15.727 3.693 o
4 -3 6 147.201 150.050 7.738 49.260 o
4 -3 7 84.095 98.204 6.826 94.113 o
4 -3 8 16.852 9.056 8.261 191.295 o
4 -3 9 27.591 26.267 9.861 125.563 o
4 -3 10 26.281 17.104 11.034 107.568 o
4 -3 11 16.649 12.925 12.159 95.216 o
4 -2 0 27.959 48.268 3.617 331.104 o
4 -2 1 722.860 625.419 10.268 4.123 o
4 -2 2 145.266 124.810 5.255 60.435 o
4 -2 3 7.724 8.155 4.567 566.744 o
4 -2 4 82.104 67.680 4.964 127.713 o
4 -2 5 135.188 153.531 7.495 52.938 o
4 -2 6 7.846 4.014 6.273 344.284 o
4 -2 7 0.068 -1.736 7.078 304.997 o
4 -2 8 1.441 -3.626 8.261 221.763 o
4 -2 9 1.318 -5.323 9.619 164.132 o
4 -2 10 0.484 -1.833 10.870 129.168 o
4 -2 11 0.001 -2.948 12.101 104.423 o
4 -1 0 378.585 394.415 8.048 11.738 o
4 -1 1 3891.400 3592.590 24.386 0.158 o
4 -1 2 3385.650 3667.380 26.791 0.186 o
4 -1 3 3608.560 3633.130 29.060 0.173 o
4 -1 4 1953.240 2115.690 24.192 0.541 o
4 -1 5 225.232 236.890 8.950 25.993 o
4 -1 6 183.567 234.931 9.493 30.698 o
4 -1 7 8.724 5.983 7.515 244.478 o
4 -1 8 56.708 49.364 6.351 154.534 o
4 -1 9 69.406 71.568 7.621 108.388 o
4 -1 10 38.174 29.709 12.208 83.619 o
4 -1 11 19.686 15.000 12.877 84.423 o
4 0 0 6154.650 6308.820 31.164 0.060 o
4 0 1 8294.760 8942.240 39.270 0.032 o
4 0 2 5798.370 5719.430 34.199 0.069 o
4 0 3 1119.750 1279.640 17.608 1.511 o
4 0 4 199.085 184.297 7.612 34.408 o
4 0 5 0.378 1.881 5.711 459.732 o
4 0 6 97.067 95.983 6.758 86.464 o
4 0 7 32.220 33.433 4.790 285.319 o
4 0 8 104.142 108.598 8.281 70.150 o
4 0 9 82.044 77.919 8.513 88.143 o
4 0 10 18.925 15.126 11.364 106.180 o
4 1 0 58.282 84.687 4.674 153.053 o
4 1 1 1112.460 1215.520 15.378 1.588 o
4 1 2 1088.710 1020.660 15.049 1.821 o
4 1 3 293.222 292.537 8.921 17.964 o
4 1 4 341.770 341.338 10.123 13.772 o
4 1 5 273.590 222.626 9.124 21.898 o
4 1 6 1.227 -1.600 7.039 304.884 o
4 1 7 6.388 0.950 7.932 230.382 o
4 1 8 0.070 -0.116 9.541 167.910 o
4 1 9 10.204 10.210 10.491 129.401 o
4 1 10 4.158 -4.906 11.800 108.206 o
4 2 0 8588.040 8899.820 40.259 0.031 o
4 2 1 3866.990 4083.110 28.895 0.146 o
4 2 2 1837.910 1930.520 21.419 0.623 o
4 2 3 295.567 344.237 9.939 15.961 o
4 2 4 28.748 47.483 4.567 281.754 o
4 2 5 49.196 57.189 5.178 186.427 o
4 2 6 226.940 259.278 10.976 23.132 o
4 2 7 283.765 304.802 12.857 16.497 o
4 2 8 206.511 252.879 12.363 24.087 o
4 2 9 78.331 68.601 7.999 98.475 o
4 2 10 28.198 25.268 12.741 81.794 o
4 3 0 4177.010 4338.330 29.680 0.127 o
4 3 1 325.465 289.948 8.407 16.289 o
4 3 2 283.722 321.606 9.338 17.493 o
4 3 3 55.774 52.486 4.577 190.757 o
4 3 4 52.611 49.490 4.577 201.858 o
4 3 5 352.733 420.411 12.993 11.259 o
4 3 6 197.849 178.033 9.696 32.461 o
4 3 7 141.329 160.871 10.065 43.561 o
4 3 8 65.402 48.976 6.826 134.674 o
4 3 9 3.855 0.941 10.889 126.666 o
4 3 10 6.093 5.983 12.217 99.354 o
4 4 0 816.004 796.811 13.604 3.035 o
4 4 1 238.859 207.006 7.592 27.180 o
4 4 2 78.068 86.927 5.372 117.186 o
4 4 3 0.159 -3.268 5.818 450.751 o
4 4 4 73.363 67.709 5.624 130.861 o
4 4 5 48.344 44.845 5.663 189.119 o
4 4 6 21.292 10.666 8.436 177.557 o
4 4 7 48.584 39.891 5.954 185.916 o
4 4 8 21.700 14.108 10.414 122.546 o
4 4 9 3.219 -3.568 11.684 110.719 o
4 5 0 2670.290 2895.270 27.237 0.295 o
4 5 1 645.340 678.516 13.846 4.403 o
4 5 2 327.507 324.049 10.317 14.749 o
4 5 3 77.831 96.478 6.613 101.393 o
4 5 4 349.986 399.467 12.751 11.735 o
4 5 5 562.472 592.917 16.493 5.419 o
4 5 6 367.919 437.544 15.184 10.124 o
4 5 7 107.985 91.862 8.348 71.848 o
4 5 8 57.328 63.637 6.904 134.296 o
4 5 9 8.355 7.136 11.829 104.642 o
4 6 0 147.656 154.966 7.107 49.931 o
4 6 1 0.729 -1.619 5.760 456.074 o
4 6 2 17.786 21.564 3.927 483.420 o
4 6 3 137.168 165.176 8.581 47.810 o
4 6 4 267.609 273.677 11.354 19.161 o
4 6 5 223.935 272.349 11.781 22.213 o
4 6 6 81.663 50.013 6.603 119.257 o
4 6 7 35.852 29.225 10.899 101.528 o
4 6 8 12.496 5.265 11.374 111.323 o
4 7 0 116.144 94.839 6.050 79.118 o
4 7 1 23.656 19.489 3.539 478.683 o
4 7 2 10.990 2.676 6.749 294.288 o
4 7 3 12.939 10.511 7.379 238.085 o
4 7 4 43.810 28.730 5.149 237.073 o
4 7 5 69.912 68.097 7.030 116.662 o
4 7 6 37.844 25.666 10.365 109.665 o
4 7 7 7.453 -0.262 10.996 122.646 o
4 7 8 1.943 -0.029 11.665 111.601 o
4 8 0 282.359 352.527 11.509 15.877 o
4 8 1 200.528 216.799 9.483 29.652 o
4 8 2 206.994 240.594 10.191 26.719 o
4 8 3 791.803 833.181 19.422 2.949 o
4 8 4 447.211 513.864 16.338 7.488 o
4 8 5 300.132 318.813 13.730 14.962 o
4 8 6 54.518 58.391 6.836 142.139 o
4 8 7 27.087 13.517 11.791 96.328 o
4 9 0 74.335 67.564 5.857 126.879 o
4 9 1 65.667 69.493 6.050 133.609 o
4 9 2 206.866 228.580 10.685 26.914 o
4 9 3 241.433 278.584 12.663 20.012 o
4 9 4 96.797 88.333 7.621 83.156 o
4 9 5 24.931 11.519 10.230 125.084 o
4 9 6 8.594 5.740 10.957 121.369 o
4 9 7 9.595 7.359 12.140 99.088 o
4 10 0 37.645 23.998 8.116 157.543 o
4 10 1 65.087 56.956 6.080 142.062 o
4 10 2 53.177 41.539 5.905 176.712 o
4 10 3 122.482 115.211 8.785 59.207 o
4 10 4 41.750 30.931 10.453 104.404 o
4 10 5 15.631 6.855 10.637 123.883 o
4 10 6 0.023 -2.017 11.461 116.401 o
4 11 0 188.998 227.106 10.899 28.842 o
4 11 1 393.655 433.520 15.184 9.533 o
4 11 2 370.248 419.170 15.407 10.257 o
4 11 3 211.996 223.548 11.936 25.376 o
4 11 4 49.989 39.522 5.837 186.578 o
4 11 5 16.926 8.639 11.703 102.919 o
4 11 6 10.985 7.020 12.537 92.776 o
4 12 0 56.579 39.832 5.750 175.624 o
4 12 1 87.190 73.527 7.796 92.506 o
4 12 2 94.891 94.442 8.281 78.069 o
4 12 3 32.266 21.952 10.937 104.735 o
4 12 4 10.931 5.847 11.277 113.742 o
4 12 5 20.534 12.760 12.605 87.864 o
4 13 0 75.304 59.477 6.826 118.142 o
4 13 1 21.740 9.221 10.356 125.315 o
4 13 2 19.335 9.599 10.928 115.144 o
4 13 3 15.032 11.248 11.626 104.442 o
4 13 4 0.852 -1.115 11.975 106.326 o
4 14 0 203.718 210.322 12.402 26.389 o
4 14 1 125.298 147.907 10.598 47.235 o
4 14 2 79.578 63.452 7.582 103.824 o
4 14 3 28.147 26.005 12.925 79.681 o
4 15 0 38.681 26.384 12.402 81.890 o
4 15 1 24.561 22.030 12.421 87.285 o
4 15 2 4.714 1.134 12.595 94.807 o
4 16 0 16.891 5.362 12.363 93.561 o
5 -20 2 68.980 67.738 8.542 99.666 o
5 -19 0 79.609 74.419 8.630 89.648 o
5 -19 1 27.550 15.659 12.372 87.956 o
5 -19 2 14.718 7.738 11.839 101.822 o
5 -19 3 1.945 -2.919 12.053 104.579 o
5 -19 4 0.837 2.899 11.616 112.386 o
5 -19 5 2.121 3.879 12.053 103.825 o
5 -18 0 16.488 9.997 11.335 109.041 o
5 -18 1 32.090 16.484 11.509 97.567 o
5 -18 2 39.941 31.930 11.597 89.618 o
5 -18 3 24.976 18.908 11.422 101.544 o
5 -18 4 6.994 2.027 11.005 122.150 o
5 -18 5 0.058 -0.107 11.655 112.546 o
5 -18 6 0.013 -5.197 12.266 101.632 o
5 -17 0 350.477 430.582 16.697 10.341 o
5 -17 1 166.457 191.443 11.364 33.605 o
5 -17 2 124.847 149.613 10.356 47.889 o
5 -17 3 15.441 12.120 10.142 133.399 o
5 -17 4 14.258 8.591 10.404 129.328 o
5 -17 5 43.307 37.195 6.894 172.545 o
5 -17 6 41.613 44.467 6.458 181.082 o
5 -17 7 49.383 51.652 7.456 141.040 o
5 -16 0 38.575 25.491 5.158 258.707 o
5 -16 1 0.130 1.804 9.018 186.889 o
5 -16 2 10.854 10.200 9.367 158.945 o
5 -16 3 1.333 4.674 9.027 183.547 o
5 -16 4 48.809 46.174 6.070 176.478 o
5 -16 5 129.393 134.225 10.026 49.735 o
5 -16 6 35.184 29.370 11.432 94.357 o
5 -16 7 32.109 23.698 11.694 93.443 o
5 -16 8 4.308 7.544 11.762 107.351 o
5 -15 0 159.595 166.669 9.939 39.490 o
5 -15 1 52.557 45.243 5.449 185.379 o
5 -15 2 14.883 7.059 8.455 187.860 o
5 -15 3 9.311 5.672 8.804 182.407 o
5 -15 4 0.855 -1.328 9.308 175.632 o
5 -15 5 38.752 32.007 5.954 216.405 o
5 -15 6 21.434 16.328 10.375 122.797 o
5 -15 7 22.534 18.646 11.015 109.450 o
5 -15 8 16.306 8.067 11.606 104.901 o
5 -15 9 4.090 2.928 12.101 102.477 o
5 -14 0 190.853 223.198 10.414 29.428 o
5 -14 1 18.262 20.954 8.155 184.635 o
5 -14 2 146.856 155.218 8.998 45.578 o
5 -14 3 173.140 176.356 9.638 36.664 o
5 -14 4 197.409 224.924 11.228 27.602 o
5 -14 5 315.505 379.939 14.467 12.815 o
5 -14 6 32.257 27.159 5.042 284.646 o
5 -14 7 30.402 28.614 5.168 282.307 o
5 -14 8 7.422 5.779 10.889 123.440 o
5 -14 9 4.104 2.831 11.723 109.076 o
5 -13 0 67.179 50.256 5.818 148.117 o
5 -13 1 136.263 126.507 7.902 55.748 o
5 -13 2 148.142 175.163 9.027 42.897 o
5 -13 3 140.253 140.906 8.610 50.188 o
5 -13 4 175.300 194.197 9.948 34.315 o
5 -13 5 31.501 19.014 8.969 145.370 o
5 -13 6 28.638 19.160 9.386 137.946 o
5 -13 7 3.761 -0.582 9.764 157.312 o
5 -13 8 5.517 2.666 10.239 141.193 o
5 -13 9 16.819 15.582 11.480 105.107 o
5 -13 10 5.753 8.271 12.508 94.663 o
5 -12 0 229.709 226.272 9.725 25.455 o
5 -12 1 334.925 367.789 12.101 12.998 o
5 -12 2 172.024 154.093 8.368 41.308 o
5 -12 3 112.769 108.802 7.350 70.832 o
5 -12 4 83.207 77.948 6.690 103.905 o
5 -12 5 67.276 62.502 6.167 134.287 o
5 -12 6 13.461 3.685 8.620 185.571 o
5 -12 7 26.734 23.145 9.570 133.659 o
5 -12 8 2.071 5.333 9.832 154.408 o
5 -12 9 1.728 0.688 10.908 127.417 o
5 -12 10 4.374 1.658 12.072 103.088 o
5 -11 0 119.829 125.751 7.233 64.403 o
5 -11 1 403.117 447.968 12.595 9.557 o
5 -11 2 362.751 327.821 10.986 12.979 o
5 -11 3 590.020 639.547 15.640 4.966 o
5 -11 4 566.697 629.288 15.931 5.223 o
5 -11 5 56.212 59.661 5.769 158.609 o
5 -11 6 83.036 82.215 6.991 99.534 o
5 -11 7 89.632 98.824 7.941 82.042 o
5 -11 8 22.013 21.419 9.900 130.729 o
5 -11 9 63.347 59.787 7.486 120.996 o
5 -11 10 24.767 17.628 12.305 89.451 o
5 -10 0 274.296 259.026 9.502 20.183 o
5 -10 1 386.561 367.925 11.092 11.403 o
5 -10 2 361.182 342.821 10.792 12.796 o
5 -10 3 253.997 255.313 9.958 21.677 o
5 -10 4 36.159 28.507 4.741 281.754 o
5 -10 5 4.447 2.191 6.904 303.168 o
5 -10 6 10.937 6.167 7.815 223.414 o
5 -10 7 48.302 50.809 5.692 182.389 o
5 -10 8 7.228 5.333 9.299 167.031 o
5 -10 9 14.257 7.970 10.540 126.483 o
5 -10 10 2.552 3.258 11.442 114.981 o
5 -9 0 707.374 696.774 14.428 3.878 o
5 -9 1 967.919 926.653 16.493 2.219 o
5 -9 2 568.599 552.125 13.129 5.781 o
5 -9 3 168.501 173.922 7.922 40.741 o
5 -9 4 96.340 105.282 6.642 84.703 o
5 -9 5 42.589 33.801 4.645 252.136 o
5 -9 6 13.482 11.858 7.796 214.537 o
5 -9 7 24.336 9.919 8.707 165.309 o
5 -9 8 7.969 6.923 9.241 167.469 o
5 -9 9 23.024 14.195 10.559 118.789 o
5 -9 10 19.283 14.302 11.587 102.559 o
5 -8 0 1510.300 1533.100 20.265 0.926 o
5 -8 1 1415.440 1328.980 18.791 1.102 o
5 -8 2 1559.040 1587.380 21.555 0.868 o
5 -8 3 177.987 189.281 7.951 37.266 o
5 -8 4 217.384 229.840 9.124 27.127 o
5 -8 5 245.671 297.356 10.753 20.212 o
5 -8 6 163.781 169.665 8.756 40.675 o
5 -8 7 232.613 273.066 12.062 21.281 o
5 -8 8 142.592 157.312 9.706 44.577 o
5 -8 9 80.376 81.866 7.941 92.995 o
5 -8 10 18.371 15.698 11.606 102.344 o
5 -8 11 0.827 1.047 12.324 100.243 o
5 -7 0 15.345 13.982 2.899 739.538 o
5 -7 1 109.026 102.684 5.381 84.445 o
5 -7 2 347.465 343.471 9.725 13.582 o
5 -7 3 69.835 74.361 5.158 137.006 o
5 -7 4 60.490 54.193 4.916 172.171 o
5 -7 5 97.586 83.417 6.206 94.302 o
5 -7 6 105.134 100.434 7.146 77.947 o
5 -7 7 23.751 19.169 8.261 174.512 o
5 -7 8 16.778 14.050 9.173 157.129 o
5 -7 9 0.532 1.464 9.677 162.223 o
5 -7 10 6.258 4.276 10.986 122.364 o
5 -7 11 0.010 -1.241 12.431 98.956 o
5 -6 0 881.184 767.528 12.964 2.827 o
5 -6 1 75.157 53.475 3.946 160.965 o
5 -6 2 288.724 282.995 8.494 18.740 o
5 -6 3 3.662 4.421 5.207 508.709 o
5 -6 4 214.007 245.257 9.114 26.640 o
5 -6 5 33.733 20.799 3.898 362.168 o
5 -6 6 338.680 391.167 13.216 12.144 o
5 -6 7 133.614 125.479 8.300 55.488 o
5 -6 8 139.556 153.511 9.774 45.549 o
5 -6 9 31.928 26.781 10.491 110.822 o
5 -6 10 5.865 4.683 10.860 125.225 o
5 -6 11 5.072 1.590 12.421 97.257 o
5 -5 0 3113.650 2989.670 24.968 0.238 o
5 -5 1 476.172 412.285 9.638 8.639 o
5 -5 2 1030.350 1051.650 15.873 1.909 o
5 -5 3 642.196 668.102 13.517 4.481 o
5 -5 4 949.953 957.051 17.317 2.218 o
5 -5 5 804.799 862.086 17.754 2.868 o
5 -5 6 525.864 585.965 15.369 5.945 o
5 -5 7 170.076 213.328 10.453 32.892 o
5 -5 8 68.014 73.585 7.107 114.893 o
5 -5 9 2.298 4.014 9.725 158.091 o
5 -5 10 1.630 2.298 10.879 127.717 o
5 -5 11 14.780 9.483 12.828 87.314 o
5 -4 0 780.751 847.406 12.848 3.093 o
5 -4 1 1.340 13.342 2.618 1399.890 o
5 -4 2 35.547 32.240 3.462 341.701 o
5 -4 3 116.930 78.860 5.032 88.990 o
5 -4 4 47.953 46.591 4.829 210.802 o
5 -4 5 28.201 18.258 6.477 238.624 o
5 -4 6 6.322 3.956 7.166 275.177 o
5 -4 7 1.346 -0.814 7.912 241.718 o
5 -4 8 1.903 1.134 8.649 201.141 o
5 -4 9 0.631 -6.138 10.036 151.365 o
5 -4 10 1.946 2.279 11.092 122.753 o
5 -3 0 107.200 130.822 5.430 76.714 o
5 -3 1 1175.130 1112.660 15.039 1.571 o
5 -3 2 766.275 879.869 14.283 3.060 o
5 -3 3 587.064 536.223 11.936 5.723 o
5 -3 4 737.188 808.388 15.805 3.346 o
5 -3 5 564.381 544.863 13.837 5.831 o
5 -3 6 345.776 422.021 13.148 11.417 o
5 -3 7 137.131 146.171 8.940 49.385 o
5 -3 8 60.260 69.862 7.030 125.574 o
5 -3 9 26.037 16.707 10.288 121.425 o
5 -3 10 17.884 12.256 11.655 102.525 o
5 -2 0 809.333 525.412 10.007 3.878 o
5 -2 1 1144.770 1274.920 16.319 1.482 o
5 -2 2 1147.910 1043.500 15.437 1.679 o
5 -2 3 595.601 685.953 13.565 4.799 o
5 -2 4 1871.010 2064.600 25.588 0.578 o
5 -2 5 381.624 477.541 13.439 9.590 o
5 -2 6 474.889 572.807 15.689 6.674 o
5 -2 7 67.248 77.929 6.981 115.098 o
5 -2 8 6.953 0.291 9.076 177.896 o
5 -2 9 50.328 47.589 6.293 167.257 o
5 -2 10 27.635 17.851 12.082 91.261 o
5 -1 0 68.361 50.023 3.830 179.583 o
5 -1 1 20.594 35.527 3.636 423.912 o
5 -1 2 78.055 100.550 5.333 110.582 o
5 -1 3 406.348 371.668 10.297 10.866 o
5 -1 4 137.159 169.054 7.912 48.979 o
5 -1 5 10.097 6.710 6.545 306.549 o
5 -1 6 0.582 2.831 7.127 295.363 o
5 -1 7 21.096 16.416 8.436 174.056 o
5 -1 8 2.048 2.977 8.979 185.643 o
5 -1 9 11.146 3.219 10.491 131.003 o
5 -1 10 10.682 6.390 11.597 107.860 o
5 0 0 686.415 688.581 11.800 4.120 o
5 0 1 2136.380 2149.210 21.884 0.480 o
5 0 2 1390.750 1460.230 19.267 1.061 o
5 0 3 1215.570 1188.750 18.384 1.431 o
5 0 4 2273.490 2436.140 28.332 0.405 o
5 0 5 302.469 300.914 10.879 16.421 o
5 0 6 346.594 398.691 13.478 11.688 o
5 0 7 85.713 75.641 7.127 98.773 o
5 0 8 19.703 14.001 9.696 140.253 o
5 0 9 22.479 18.714 11.122 107.642 o
5 0 10 2.947 1.939 11.849 107.428 o
5 1 0 1999.350 2145.580 21.468 0.523 o
5 1 1 1303.300 1475.330 18.811 1.142 o
5 1 2 2242.580 2313.200 24.561 0.429 o
5 1 3 1682.430 1876.200 24.085 0.704 o
5 1 4 589.755 674.366 15.504 4.817 o
5 1 5 271.305 337.585 11.732 16.783 o
5 1 6 24.534 22.922 8.339 168.530 o
5 1 7 95.541 95.634 7.650 81.570 o
5 1 8 104.765 102.974 8.445 70.246 o
5 1 9 64.507 53.650 7.544 122.030 o
5 1 10 27.487 17.909 13.022 80.024 o
5 2 0 45.762 40.705 3.859 256.626 o
5 2 1 10.047 4.228 4.790 522.476 o
5 2 2 272.419 310.911 9.561 18.462 o
5 2 3 122.177 109.500 6.710 69.091 o
5 2 4 3.050 -0.078 6.516 347.823 o
5 2 5 1.870 -3.219 7.408 274.060 o
5 2 6 23.039 13.216 8.281 178.879 o
5 2 7 14.797 5.478 9.027 168.253 o
5 2 8 40.350 34.247 5.847 213.561 o
5 2 9 1.228 -2.007 11.568 113.764 o
5 3 0 1789.260 1826.470 21.487 0.668 o
5 3 1 779.723 826.801 15.184 3.104 o
5 3 2 1422.090 1446.300 21.002 1.034 o
5 3 3 1056.770 1042.000 19.237 1.835 o
5 3 4 383.763 436.507 13.216 10.096 o
5 3 5 332.105 321.150 12.227 14.025 o
5 3 6 129.765 133.906 9.056 52.856 o
5 3 7 36.995 25.521 10.084 114.997 o
5 3 8 24.464 14.098 10.860 112.364 o
5 3 9 21.149 15.262 12.140 93.397 o
5 4 0 1678.820 1716.310 21.943 0.752 o
5 4 1 2492.090 2614.850 27.887 0.345 o
5 4 2 2096.470 2121.740 26.548 0.492 o
5 4 3 840.448 970.519 19.237 2.509 o
5 4 4 176.832 174.484 8.795 37.567 o
5 4 5 165.497 181.582 9.968 36.975 o
5 4 6 172.264 183.415 10.511 34.756 o
5 4 7 86.047 76.348 7.427 95.562 o
5 4 8 55.336 38.756 6.273 166.714 o
5 4 9 16.158 14.709 12.731 87.337 o
5 5 0 403.254 427.770 11.636 9.955 o
5 5 1 311.044 289.938 10.385 16.437 o
5 5 2 8.375 12.469 6.816 282.310 o
5 5 3 29.431 23.484 4.005 373.869 o
5 5 4 97.082 48.520 5.498 116.167 o
5 5 5 1.506 -1.745 8.290 220.123 o
5 5 6 12.851 6.206 9.250 162.607 o
5 5 7 21.331 9.813 10.695 118.450 o
5 5 8 0.490 2.056 11.597 113.077 o
5 6 0 1089.820 1162.270 19.528 1.650 o
5 6 1 1113.370 1124.440 19.994 1.639 o
5 6 2 777.549 815.398 17.793 3.087 o
5 6 3 286.437 279.398 11.151 17.862 o
5 6 4 229.618 259.036 11.577 22.450 o
5 6 5 23.498 15.834 9.260 147.270 o
5 6 6 23.491 16.775 10.181 125.288 o
5 6 7 24.396 15.776 11.500 101.326 o
5 6 8 22.498 19.877 12.566 86.546 o
5 7 0 1714.590 1815.890 25.637 0.701 o
5 7 1 859.522 967.930 19.489 2.446 o
5 7 2 111.644 113.379 7.515 69.498 o
5 7 3 177.704 209.265 10.259 32.353 o
5 7 4 131.041 123.269 8.300 56.706 o
5 7 5 184.431 210.370 11.190 30.090 o
5 7 6 72.490 45.029 6.555 132.824 o
5 7 7 65.886 61.455 8.300 107.139 o
5 8 0 29.750 23.930 4.819 315.421 o
5 8 1 7.976 6.991 7.544 243.298 o
5 8 2 38.415 18.365 8.397 152.704 o
5 8 3 0.001 -0.310 8.542 209.544 o
5 8 4 33.940 27.004 4.868 287.421 o
5 8 5 16.831 11.781 10.307 128.772 o
5 8 6 1.485 0.650 11.248 120.027 o
5 8 7 1.219 -0.213 12.372 99.504 o
5 9 0 382.373 415.931 13.536 10.351 o
5 9 1 285.916 296.910 11.926 17.019 o
5 9 2 169.520 182.464 10.045 36.069 o
5 9 3 81.132 64.888 6.632 112.145 o
5 9 4 44.428 36.584 5.847 201.283 o
5 9 5 51.771 36.885 6.050 180.099 o
5 9 6 40.852 34.897 12.944 74.353 o
5 10 0 200.037 211.369 10.569 28.840 o
5 10 1 62.877 56.006 6.177 144.131 o
5 10 2 172.509 177.907 10.695 34.845 o
5 10 3 121.489 118.139 8.911 58.538 o
5 10 4 81.236 66.022 7.602 101.319 o
5 10 5 38.410 36.031 12.547 78.825 o
5 11 0 12.405 11.490 8.833 174.200 o
5 11 1 5.205 3.956 9.202 173.164 o
5 11 2 15.198 11.577 9.784 142.686 o
5 11 3 8.947 5.352 10.627 128.539 o
5 11 4 0.137 -7.195 11.771 110.302 o
5 11 5 0.028 -0.097 12.227 102.273 o
5 12 0 157.311 171.595 10.540 38.241 o
5 12 1 64.715 51.613 6.545 138.485 o
5 12 2 35.122 19.906 11.325 98.027 o
5 12 3 54.000 42.896 6.894 152.049 o
5 12 4 31.709 23.184 12.634 82.194 o
5 13 0 82.808 83.892 8.125 89.155 o
5 13 1 62.993 56.549 7.166 127.768 o
5 13 2 70.942 65.566 7.728 108.356 o
5 13 3 36.021 32.133 13.284 72.968 o
5 14 0 4.677 2.191 11.141 120.386 o
5 14 1 6.981 2.376 11.839 105.954 o
5 14 2 0.002 -0.640 12.392 99.578 o
5 15 0 46.468 35.071 12.974 72.405 o
6 -19 0 32.211 31.891 12.586 81.140 o
6 -19 1 30.881 33.491 12.392 83.464 o
6 -19 2 24.508 16.028 12.198 91.228 o
6 -19 3 73.139 55.492 7.427 114.534 o
6 -19 4 18.627 11.209 12.431 91.037 o
6 -18 0 107.363 108.230 8.843 65.942 o
6 -18 1 83.204 81.837 8.096 89.800 o
6 -18 2 65.386 53.368 6.923 130.605 o
6 -18 3 50.857 54.338 7.224 142.092 o
6 -18 4 0.320 -0.436 11.403 117.462 o
6 -18 5 5.954 4.266 11.926 104.484 o
6 -18 6 7.500 8.087 12.392 95.846 o
6 -17 0 3.466 -0.921 10.385 139.572 o
6 -17 1 10.026 4.819 10.133 140.098 o
6 -17 2 24.843 13.488 10.714 114.974 o
6 -17 3 32.004 13.090 10.792 109.652 o
6 -17 4 33.296 17.560 10.996 104.433 o
6 -17 5 0.054 -2.899 11.345 118.787 o
6 -17 6 0.034 -4.683 11.975 106.622 o
6 -17 7 0.612 -1.018 12.392 99.386 o
6 -16 0 205.865 224.459 11.791 26.101 o
6 -16 1 203.741 237.859 11.839 25.584 o
6 -16 2 116.371 128.233 9.047 58.021 o
6 -16 3 77.777 73.061 7.185 105.583 o
6 -16 4 7.109 6.109 9.948 146.753 o
6 -16 5 60.080 46.154 6.690 145.528 o
6 -16 6 23.741 20.052 11.568 99.631 o
6 -16 7 26.748 23.766 12.023 91.233 o
6 -16 8 22.070 18.772 12.974 82.022 o
6 -15 0 124.244 119.623 8.455 59.111 o
6 -15 1 139.556 155.470 9.580 45.829 o
6 -15 2 10.511 8.445 9.114 168.321 o
6 -15 3 30.919 28.303 4.829 299.586 o
6 -15 4 45.635 33.598 5.381 216.895 o
6 -15 5 149.303 173.049 10.724 39.191 o
6 -15 6 43.855 39.522 5.992 194.912 o
6 -15 7 10.422 13.575 11.228 113.038 o
6 -15 8 0.320 -2.327 12.023 105.662 o
6 -14 0 180.042 198.134 10.220 32.881 o
6 -14 1 10.262 4.819 8.087 212.371 o
6 -14 2 75.278 56.743 6.380 125.314 o
6 -14 3 15.887 4.848 8.542 184.632 o
6 -14 4 11.695 6.584 8.843 177.569 o
6 -14 5 22.259 15.339 9.599 139.969 o
6 -14 6 3.015 -1.939 10.036 149.616 o
6 -14 7 26.961 13.303 10.850 111.380 o
6 -14 8 22.725 11.451 11.849 97.689 o
6 -14 9 0.276 1.028 12.169 102.995 o
6 -13 0 422.472 465.857 14.447 8.646 o
6 -13 1 230.456 259.986 11.151 22.660 o
6 -13 2 356.556 379.076 13.332 11.718 o
6 -13 3 276.781 306.334 12.314 17.091 o
6 -13 4 235.009 273.658 11.868 21.209 o
6 -13 5 212.809 213.017 11.219 26.569 o
6 -13 6 68.260 76.901 7.340 110.374 o
6 -13 7 47.727 34.490 5.905 194.605 o
6 -13 8 26.124 30.834 11.490 97.302 o
6 -13 9 1.834 2.366 11.616 112.085 o
6 -12 0 110.803 117.063 7.582 68.721 o
6 -12 1 194.441 194.973 9.444 32.045 o
6 -12 2 72.424 67.215 5.905 128.729 o
6 -12 3 218.304 216.062 10.133 26.881 o
6 -12 4 301.162 342.831 12.770 14.731 o
6 -12 5 29.002 26.791 9.085 141.196 o
6 -12 6 6.882 9.153 9.105 172.134 o
6 -12 7 2.694 3.045 9.754 157.244 o
6 -12 8 3.912 3.209 10.453 136.504 o
6 -12 9 8.890 4.121 11.713 107.042 o
6 -11 0 585.404 604.204 15.194 5.203 o
6 -11 1 80.090 70.143 5.827 119.330 o
6 -11 2 0.085 0.601 6.526 357.514 o
6 -11 3 5.631 3.995 7.224 272.818 o
6 -11 4 1.821 3.297 7.612 256.335 o
6 -11 5 125.150 106.097 7.864 63.698 o
6 -11 6 96.852 82.729 7.350 86.748 o
6 -11 7 15.290 7.456 9.551 150.674 o
6 -11 8 0.112 -0.223 10.104 149.714 o
6 -11 9 0.005 -2.540 11.219 121.494 o
6 -11 10 0.095 2.405 12.382 99.324 o
6 -10 0 505.499 566.311 13.953 6.436 o
6 -10 1 556.387 586.663 14.302 5.654 o
6 -10 2 603.706 541.983 14.176 5.389 o
6 -10 3 1199.670 1322.810 22.583 1.338 o
6 -10 4 544.559 585.975 15.892 5.690 o
6 -10 5 391.458 452.186 14.399 9.500 o
6 -10 6 134.259 149.836 9.124 49.137 o
6 -10 7 45.318 42.053 5.614 200.118 o
6 -10 8 20.111 15.950 10.297 125.404 o
6 -10 9 33.380 24.987 11.694 92.635 o
6 -10 10 43.404 32.783 7.156 168.898 o
6 -9 0 569.712 616.809 13.905 5.367 o
6 -9 1 843.197 890.380 16.998 2.676 o
6 -9 2 1378.080 1467.180 22.214 1.061 o
6 -9 3 309.787 303.464 10.860 15.967 o
6 -9 4 39.005 34.635 4.974 249.768 o
6 -9 5 2.202 -4.712 7.660 255.884 o
6 -9 6 39.123 34.635 4.732 259.330 o
6 -9 7 9.224 5.779 8.765 183.943 o
6 -9 8 92.808 87.392 7.961 83.360 o
6 -9 9 65.110 54.270 7.156 126.862 o
6 -9 10 25.091 19.111 12.731 83.855 o
6 -8 0 73.004 68.097 5.052 138.305 o
6 -8 1 0.250 -0.941 5.575 490.007 o
6 -8 2 12.057 5.934 6.283 322.499 o
6 -8 3 548.695 579.517 14.331 5.781 o
6 -8 4 522.189 566.825 14.893 6.143 o
6 -8 5 233.964 233.011 10.472 24.089 o
6 -8 6 5.553 -1.028 7.689 247.013 o
6 -8 7 3.595 -0.582 8.795 193.255 o
6 -8 8 8.077 7.243 9.735 151.639 o
6 -8 9 1.322 2.705 10.724 131.454 o
6 -8 10 16.422 15.931 12.479 90.335 o
6 -7 0 1835.600 1853.390 22.505 0.639 o
6 -7 1 2243.000 2029.790 23.727 0.466 o
6 -7 2 2035.270 2128.940 25.395 0.511 o
6 -7 3 1233.370 1394.900 21.351 1.256 o
6 -7 4 587.352 662.381 15.533 4.891 o
6 -7 5 93.243 121.834 7.932 74.095 o
6 -7 6 76.019 72.014 6.244 117.992 o
6 -7 7 136.386 168.385 9.764 44.583 o
6 -7 8 193.115 224.527 12.120 27.081 o
6 -7 9 91.287 110.285 9.493 68.537 o
6 -7 10 22.000 17.085 12.324 90.275 o
6 -6 0 1624.650 1591.240 20.081 0.826 o
6 -6 1 1494.540 1380.430 19.044 1.004 o
6 -6 2 161.110 154.898 7.195 46.058 o
6 -6 3 1.513 -0.019 5.866 434.986 o
6 -6 4 122.300 137.716 7.495 60.077 o
6 -6 5 92.958 91.126 6.419 93.326 o
6 -6 6 401.095 437.224 14.331 9.460 o
6 -6 7 256.408 283.839 12.314 19.029 o
6 -6 8 161.610 171.576 10.724 37.120 o
6 -6 9 11.539 6.545 10.763 123.660 o
6 -6 10 0.043 1.571 11.587 113.551 o
6 -5 0 4.414 4.897 4.606 619.686 o
6 -5 1 233.213 197.862 7.456 28.547 o
6 -5 2 2055.150 2337.340 25.753 0.474 o
6 -5 3 789.160 785.505 15.640 3.148 o
6 -5 4 1.039 3.132 6.050 403.558 o
6 -5 5 22.575 11.034 7.078 231.673 o
6 -5 6 3.971 -1.047 7.912 236.804 o
6 -5 7 2.072 1.687 8.678 199.236 o
6 -5 8 32.845 27.324 10.414 111.412 o
6 -5 9 20.506 13.264 10.918 113.698 o
6 -5 10 5.906 3.733 11.820 106.447 o
6 -4 0 4481.210 4036.760 31.309 0.121 o
6 -4 1 3903.780 4166.970 32.269 0.142 o
6 -4 2 2139.350 2276.390 24.948 0.460 o
6 -4 3 687.472 838.272 16.076 3.526 o
6 -4 4 56.934 40.909 4.674 199.418 o
6 -4 5 507.047 642.669 15.834 5.799 o
6 -4 6 317.536 332.475 12.828 14.212 o
6 -4 7 271.414 331.021 13.875 15.988 o
6 -4 8 109.818 116.452 9.047 62.420 o
6 -4 9 21.530 16.561 10.928 112.075 o
6 -4 10 11.117 4.499 12.043 100.583 o
6 -3 0 16.022 16.978 3.122 654.353 o
6 -3 1 159.609 131.995 6.293 51.630 o
6 -3 2 64.374 77.725 5.304 140.285 o
6 -3 3 33.807 30.786 3.937 329.911 o
6 -3 4 843.201 937.348 18.471 2.568 o
6 -3 5 467.175 516.792 14.447 7.341 o
6 -3 6 592.461 672.669 18.074 4.674 o
6 -3 7 109.922 97.826 8.116 70.849 o
6 -3 8 1.183 -6.778 9.977 152.717 o
6 -3 9 4.344 -0.010 10.782 129.129 o
6 -3 10 3.019 1.096 11.946 105.844 o
6 -2 0 2562.290 2912.830 25.782 0.310 o
6 -2 1 2141.430 2171.030 23.329 0.475 o
6 -2 2 97.196 122.609 6.283 80.918 o
6 -2 3 1.053 2.007 5.604 471.667 o
6 -2 4 35.975 19.683 4.305 326.619 o
6 -2 5 9.308 6.720 7.214 260.729 o
6 -2 6 19.048 25.899 8.795 159.587 o
6 -2 7 69.721 84.358 7.786 101.210 o
6 -2 8 48.943 35.770 5.973 188.806 o
6 -2 9 3.108 2.056 10.947 125.447 o
6 -2 10 0.417 -0.834 12.082 104.614 o
6 -1 0 2858.630 2961.710 26.131 0.267 o
6 -1 1 1258.160 1494.560 19.412 1.178 o
6 -1 2 50.784 43.362 4.421 218.863 o
6 -1 3 372.619 463.899 12.469 10.156 o
6 -1 4 1260.880 1382.840 22.709 1.225 o
6 -1 5 542.232 631.712 16.416 5.432 o
6 -1 6 480.754 538.638 16.425 6.765 o
6 -1 7 110.350 113.068 8.416 65.831 o
6 -1 8 16.419 7.418 10.123 134.839 o
6 -1 9 12.139 11.548 11.316 111.084 o
6 0 0 243.414 321.247 9.144 20.346 o
6 0 1 229.554 235.212 8.164 26.206 o
6 0 2 601.773 689.560 14.554 4.688 o
6 0 3 2123.050 2279.350 28.051 0.461 o
6 0 4 526.880 563.547 14.738 6.116 o
6 0 5 269.474 265.969 11.190 19.387 o
6 0 6 0.101 2.986 8.174 226.221 o
6 0 7 5.362 2.317 9.076 178.524 o
6 0 8 6.058 4.751 10.113 143.482 o
6 0 9 12.259 4.703 11.684 106.029 o
6 1 0 28.608 22.844 3.384 430.832 o
6 1 1 0.519 2.259 4.974 598.489 o
6 1 2 2.049 1.900 5.905 420.673 o
6 1 3 2.475 -3.045 6.972 306.921 o
6 1 4 151.332 168.638 8.843 43.314 o
6 1 5 85.995 88.149 7.117 94.022 o
6 1 6 90.922 89.516 7.612 86.415 o
6 1 7 15.219 12.246 9.522 149.433 o
6 1 8 6.358 1.648 10.472 134.969 o
6 1 9 0.701 -2.153 11.849 108.651 o
6 2 0 516.842 600.432 12.906 6.133 o
6 2 1 822.186 896.624 16.522 2.752 o
6 2 2 997.567 1017.540 18.394 2.004 o
6 2 3 1177.790 1357.060 22.263 1.346 o
6 2 4 322.282 336.674 12.208 14.120 o
6 2 5 163.041 189.368 9.793 37.030 o
6 2 6 63.584 57.577 6.109 143.211 o
6 2 7 18.155 12.993 10.007 134.322 o
6 2 8 23.594 12.130 11.257 106.446 o
6 2 9 19.821 14.409 12.518 88.948 o
6 3 0 356.656 353.080 10.443 12.853 o
6 3 1 965.481 977.035 17.560 2.146 o
6 3 2 668.059 738.575 16.416 3.937 o
6 3 3 153.304 132.975 7.767 49.877 o
6 3 4 3.462 3.733 7.408 265.733 o
6 3 5 7.266 6.487 8.222 209.401 o
6 3 6 17.687 7.049 9.299 155.951 o
6 3 7 21.732 13.119 10.569 119.712 o
6 3 8 16.952 11.025 11.742 101.786 o
6 4 0 28.702 19.587 4.160 379.894 o
6 4 1 0.860 2.676 6.361 368.118 o
6 4 2 252.530 269.605 10.763 20.734 o
6 4 3 150.672 128.728 8.048 50.509 o
6 4 4 176.578 193.470 10.104 33.934 o
6 4 5 37.304 27.954 4.625 283.919 o
6 4 6 4.304 0.892 9.609 161.467 o
6 4 7 0.679 -0.223 10.676 133.782 o
6 4 8 15.423 9.105 12.334 93.835 o
6 5 0 1160.830 1187.760 20.605 1.502 o
6 5 1 1319.360 1449.880 23.194 1.123 o
6 5 2 535.702 546.036 15.155 6.085 o
6 5 3 165.581 200.693 9.919 35.411 o
6 5 4 71.149 67.496 6.448 123.066 o
6 5 5 53.192 51.943 5.934 166.725 o
6 5 6 35.575 29.225 10.889 101.816 o
6 5 7 30.279 20.333 11.956 91.414 o
6 6 0 334.802 368.293 12.295 12.941 o
6 6 1 46.590 21.322 8.038 150.139 o
6 6 2 59.211 25.908 4.800 209.232 o
6 6 3 18.951 11.122 8.358 183.170 o
6 6 4 0.878 -1.881 8.862 193.633 o
6 6 5 65.749 43.759 6.002 151.830 o
6 6 6 20.817 10.705 11.005 112.614 o
6 6 7 15.361 11.858 12.285 94.066 o
6 7 0 442.400 449.771 14.021 8.459 o
6 7 1 380.154 375.866 13.003 11.099 o
6 7 2 123.355 142.467 8.639 54.910 o
6 7 3 48.470 39.396 5.391 202.397 o
6 7 4 0.537 -0.242 9.250 178.159 o
6 7 5 1.339 -3.859 10.656 133.887 o
6 7 6 19.193 13.895 11.645 101.764 o
6 8 0 275.856 269.682 11.645 18.591 o
6 8 1 74.730 85.191 7.069 104.268 o
6 8 2 15.504 16.290 8.756 170.384 o
6 8 3 95.001 99.998 7.951 78.693 o
6 8 4 87.532 77.696 7.699 91.712 o
6 8 5 87.852 74.632 8.058 89.467 o
6 8 6 90.884 102.160 9.919 67.811 o
6 9 0 24.687 14.806 8.523 167.708 o
6 9 1 23.824 11.442 8.872 160.014 o
6 9 2 19.914 13.788 9.367 148.735 o
6 9 3 101.004 104.768 8.707 70.073 o
6 9 4 45.806 29.205 11.975 83.450 o
6 9 5 5.756 2.123 11.975 104.136 o
6 10 0 92.747 85.919 7.524 87.048 o
6 10 1 48.774 38.077 5.944 187.615 o
6 10 2 1.936 1.319 9.793 157.340 o
6 10 3 6.762 2.366 10.666 129.811 o
6 10 4 64.473 57.838 7.786 116.617 o
6 11 0 39.071 36.225 5.624 222.236 o
6 11 1 75.606 80.082 7.932 96.993 o
6 11 2 87.583 85.094 8.067 86.323 o
6 11 3 122.833 123.278 10.162 52.528 o
6 11 4 64.040 52.467 7.835 118.802 o
6 12 0 8.918 2.899 10.433 133.911 o
6 12 1 54.414 35.430 11.975 79.060 o
6 12 2 39.708 26.946 12.498 80.406 o
6 12 3 4.207 1.959 12.479 96.583 o
6 13 0 10.008 -2.046 11.500 111.300 o
6 13 1 2.984 5.517 11.626 110.773 o
6 13 2 26.552 24.105 13.168 77.853 o
6 14 0 60.492 59.234 7.466 124.410 o
7 -19 0 16.077 9.512 12.402 92.588 o
7 -19 1 5.894 7.020 11.946 103.656 o
7 -19 2 3.247 2.317 12.111 102.722 o
7 -19 3 5.157 3.103 12.246 99.710 o
7 -18 0 2.163 3.258 11.248 119.099 o
7 -18 1 26.325 14.690 11.636 98.661 o
7 -18 2 61.760 50.256 7.272 130.873 o
7 -18 3 46.517 40.647 6.943 163.502 o
7 -18 4 35.248 24.948 12.624 80.862 o
7 -18 5 6.424 7.350 12.159 99.919 o
7 -17 0 186.221 203.864 12.256 28.850 o
7 -17 1 130.405 146.385 10.579 46.269 o
7 -17 2 205.439 232.875 12.925 24.555 o
7 -17 3 52.653 48.355 6.623 155.752 o
7 -17 4 3.479 -5.566 11.568 112.823 o
7 -17 5 21.463 17.046 11.897 96.362 o
7 -17 6 12.750 11.587 12.198 96.308 o
7 -16 0 9.577 3.946 10.065 142.529 o
7 -16 1 4.446 3.520 9.832 153.235 o
7 -16 2 5.010 -1.348 9.968 150.122 o
7 -16 3 9.351 1.532 10.007 145.171 o
7 -16 4 0.023 0.698 10.268 144.775 o
7 -16 5 27.785 16.299 11.374 101.590 o
7 -16 6 12.232 8.824 11.606 106.499 o
7 -16 7 8.242 1.387 12.431 96.120 o
7 -15 0 353.284 378.087 14.738 11.491 o
7 -15 1 193.358 223.683 11.694 27.598 o
7 -15 2 70.846 76.921 7.515 106.179 o
7 -15 3 61.851 41.762 5.672 166.068 o
7 -15 4 0.956 -0.921 10.123 148.545 o
7 -15 5 28.868 20.411 10.966 106.468 o
7 -15 6 24.553 15.611 11.626 99.373 o
7 -15 7 48.429 37.476 12.741 73.537 o
7 -14 0 405.886 445.699 15.524 9.053 o
7 -14 1 78.402 87.945 7.224 98.769 o
7 -14 2 30.422 19.693 9.124 142.293 o
7 -14 3 35.621 25.501 9.561 125.728 o
7 -14 4 120.094 125.499 8.921 57.724 o
7 -14 5 131.751 144.125 10.074 47.720 o
7 -14 6 84.393 93.482 8.407 83.115 o
7 -14 7 55.298 50.285 7.039 142.555 o
7 -14 8 21.761 19.140 12.692 85.365 o
7 -13 0 8.720 -0.388 8.067 219.925 o
7 -13 1 1.766 -0.553 7.990 236.336 o
7 -13 2 8.832 3.568 7.941 223.112 o
7 -13 3 24.341 15.039 8.785 160.025 o
7 -13 4 77.043 78.113 7.253 103.410 o
7 -13 5 6.058 -1.997 9.570 161.585 o
7 -13 6 0.222 -8.639 10.404 141.123 o
7 -13 7 0.077 -9.687 11.141 123.157 o
7 -13 8 0.109 -1.629 11.519 115.192 o
7 -12 0 140.587 135.079 8.261 51.938 o
7 -12 1 382.449 438.533 13.827 9.995 o
7 -12 2 134.775 117.150 7.592 58.928 o
7 -12 3 100.712 104.923 7.456 77.343 o
7 -12 4 126.776 141.740 9.134 52.328 o
7 -12 5 168.814 179.468 10.501 35.650 o
7 -12 6 150.999 182.930 11.277 36.871 o
7 -12 7 75.738 73.352 7.631 102.436 o
7 -12 8 1.656 3.655 11.151 121.298 o
7 -12 9 0.018 1.387 12.053 105.015 o
7 -11 0 14.932 22.534 3.966 502.771 o
7 -11 1 75.818 81.963 6.283 112.805 o
7 -11 2 154.200 140.964 8.106 47.692 o
7 -11 3 368.710 399.583 13.575 10.965 o
7 -11 4 400.375 456.898 14.845 9.163 o
7 -11 5 306.458 353.672 14.273 13.733 o
7 -11 6 108.803 113.117 8.319 66.932 o
7 -11 7 68.203 68.524 7.078 117.499 o
7 -11 8 0.044 -0.504 10.928 128.027 o
7 -11 9 2.093 -3.297 12.062 104.359 o
7 -10 0 0.475 9.066 6.671 325.320 o
7 -10 1 57.451 43.333 5.091 185.636 o
7 -10 2 351.784 339.001 11.829 12.975 o
7 -10 3 59.338 56.364 5.827 155.177 o
7 -10 4 1.078 -0.204 7.854 245.794 o
7 -10 5 16.532 12.974 8.630 175.431 o
7 -10 6 0.878 1.745 8.872 192.168 o
7 -10 7 0.208 -2.220 9.619 165.095 o
7 -10 8 0.001 -0.039 10.627 135.396 o
7 -10 9 4.543 -2.065 11.985 104.811 o
7 -9 0 109.445 116.200 6.981 72.421 o
7 -9 1 512.024 505.981 13.701 6.793 o
7 -9 2 547.651 577.461 14.923 5.768 o
7 -9 3 910.098 1047.540 20.634 2.164 o
7 -9 4 645.076 733.668 18.190 4.042 o
7 -9 5 324.791 383.090 13.992 12.564 o
7 -9 6 10.603 10.045 9.076 168.683 o
7 -9 7 1.849 3.336 9.347 171.596 o
7 -9 8 0.746 -0.194 10.491 138.466 o
7 -9 9 0.108 0.737 11.597 113.506 o
7 -8 0 1257.120 1398.430 21.215 1.227 o
7 -8 1 1151.630 1053.450 18.820 1.642 o
7 -8 2 1827.380 1977.540 26.994 0.611 o
7 -8 3 540.125 526.624 14.554 6.196 o
7 -8 4 395.782 453.155 13.837 9.478 o
7 -8 5 99.283 97.225 7.321 81.100 o
7 -8 6 5.124 6.322 8.542 198.102 o
7 -8 7 1.757 1.445 9.396 170.853 o
7 -8 8 23.162 23.126 11.063 107.140 o
7 -8 9 29.833 26.898 12.605 82.525 o
7 -7 0 129.675 94.287 6.002 72.074 o
7 -7 1 21.070 18.064 6.341 266.273 o
7 -7 2 66.999 75.195 6.206 126.524 o
7 -7 3 94.235 88.973 6.739 90.848 o
7 -7 4 44.715 40.017 4.955 224.731 o
7 -7 5 17.844 10.695 7.650 214.382 o
7 -7 6 0.134 -0.126 8.261 223.839 o
7 -7 7 7.697 3.568 9.434 162.904 o
7 -7 8 8.569 5.149 10.346 135.560 o
7 -7 9 0.072 0.805 11.325 119.004 o
7 -6 0 2097.610 1989.610 24.347 0.514 o
7 -6 1 1762.620 1858.570 24.037 0.670 o
7 -6 2 1500.620 1565.850 22.486 0.916 o
7 -6 3 604.971 709.631 16.222 4.507 o
7 -6 4 22.565 20.265 7.311 211.221 o
7 -6 5 0.310 0.989 7.505 269.609 o
7 -6 6 38.200 36.526 5.149 242.325 o
7 -6 7 21.447 14.700 9.987 131.704 o
7 -6 8 51.423 43.953 6.545 162.670 o
7 -6 9 31.447 29.971 12.227 85.787 o
7 -5 0 2625.160 2589.240 27.373 0.325 o
7 -5 1 1309.740 1266.230 19.383 1.250 o
7 -5 2 760.882 871.375 16.736 3.058 o
7 -5 3 256.161 244.026 9.861 22.028 o
7 -5 4 81.605 98.291 6.720 96.793 o
7 -5 5 42.088 29.234 4.373 273.485 o
7 -5 6 92.341 93.433 7.835 82.782 o
7 -5 7 61.051 57.538 7.214 128.587 o
7 -5 8 20.873 12.799 10.937 113.268 o
7 -5 9 6.191 2.696 11.636 109.846 o
7 -4 0 266.995 312.627 9.580 18.758 o
7 -4 1 351.825 308.836 9.968 14.081 o
7 -4 2 70.330 73.856 5.653 130.445 o
7 -4 3 0.810 -0.194 6.186 395.487 o
7 -4 4 24.789 18.694 7.156 214.989 o
7 -4 5 22.404 15.165 8.242 179.757 o
7 -4 6 0.197 1.018 8.368 217.310 o
7 -4 7 1.602 4.315 9.279 173.823 o
7 -4 8 20.414 17.327 10.850 113.886 o
7 -4 9 0.753 -3.617 11.568 113.962 o
7 -3 0 2488.190 2461.240 26.248 0.360 o
7 -3 1 1173.640 1315.100 19.635 1.394 o
7 -3 2 234.719 256.903 9.405 23.672 o
7 -3 3 42.515 18.859 6.632 198.658 o
7 -3 4 386.755 432.405 13.468 10.027 o
7 -3 5 167.175 184.792 9.919 36.488 o
7 -3 6 204.778 221.317 11.354 26.846 o
7 -3 7 119.646 132.684 9.648 53.979 o
7 -3 8 55.449 46.920 6.419 156.889 o
7 -3 9 19.680 11.868 12.043 95.963 o
7 -2 0 256.087 264.417 8.921 21.725 o
7 -2 1 292.723 299.363 9.687 17.489 o
7 -2 2 212.387 241.864 9.289 26.866 o
7 -2 3 2.951 1.377 6.497 347.468 o
7 -2 4 655.379 756.542 18.093 3.903 o
7 -2 5 88.552 86.481 7.447 90.173 o
7 -2 6 95.010 83.756 7.873 83.768 o
7 -2 7 39.498 30.359 5.440 236.184 o
7 -2 8 6.658 -1.619 10.860 126.069 o
7 -2 9 10.500 6.167 11.975 101.591 o
7 -1 0 36.894 46.261 4.460 257.370 o
7 -1 1 39.280 29.147 4.034 301.214 o
7 -1 2 20.174 15.524 6.361 271.796 o
7 -1 3 24.346 14.215 7.214 217.972 o
7 -1 4 56.167 47.987 6.012 163.394 o
7 -1 5 21.725 21.894 8.542 166.391 o
7 -1 6 75.609 73.527 7.553 103.284 o
7 -1 7 31.153 20.382 10.365 115.469 o
7 -1 8 0.406 -0.417 10.714 132.972 o
7 -1 9 0.001 -3.112 12.178 103.098 o
7 0 0 114.113 104.138 6.244 76.678 o
7 0 1 6.290 2.230 5.682 424.355 o
7 0 2 508.291 537.532 13.866 6.605 o
7 0 3 1035.850 1210.390 21.826 1.688 o
7 0 4 1112.060 1254.750 23.145 1.510 o
7 0 5 456.336 499.145 15.756 7.527 o
7 0 6 167.032 171.546 10.297 36.987 o
7 0 7 50.906 37.767 6.031 181.406 o
7 0 8 2.972 -0.553 11.412 116.095 o
7 1 0 457.119 526.294 12.857 7.590 o
7 1 1 138.458 145.958 7.350 53.502 o
7 1 2 1168.850 1275.460 21.671 1.418 o
7 1 3 594.740 676.325 17.007 4.693 o
7 1 4 86.618 74.846 7.098 98.649 o
7 1 5 18.195 16.387 9.037 158.502 o
7 1 6 15.690 13.332 9.493 149.336 o
7 1 7 10.486 7.796 10.414 131.798 o
7 1 8 19.380 16.125 11.946 96.667 o
7 2 0 152.716 140.867 7.117 50.493 o
7 2 1 46.189 25.259 4.577 257.143 o
7 2 2 62.465 55.560 6.070 146.826 o
7 2 3 362.803 361.283 12.799 11.934 o
7 2 4 185.833 198.289 10.104 32.185 o
7 2 5 46.276 32.366 5.304 219.410 o
7 2 6 0.923 -2.356 9.754 159.950 o
7 2 7 5.044 0.737 10.821 127.635 o
7 2 8 2.420 -2.133 12.053 104.410 o
7 3 0 633.565 609.042 14.845 4.749 o
7 3 1 1669.580 1855.950 26.248 0.713 o
7 3 2 1674.980 1742.230 26.500 0.739 o
7 3 3 686.578 783.081 19.024 3.601 o
7 3 4 266.758 291.363 12.392 18.087 o
7 3 5 26.515 11.616 9.308 145.162 o
7 3 6 28.037 19.160 10.666 112.360 o
7 3 7 8.269 4.208 11.277 115.400 o
7 4 0 881.588 979.323 19.334 2.361 o
7 4 1 792.833 830.030 18.491 2.971 o
7 4 2 256.564 284.828 11.907 19.221 o
7 4 3 54.875 42.955 5.624 178.841 o
7 4 4 26.167 16.910 9.008 150.812 o
7 4 5 61.555 56.403 6.332 143.040 o
7 4 6 48.752 33.694 6.002 190.495 o
7 4 7 28.469 15.921 12.372 87.590 o
7 5 0 62.436 54.784 5.886 150.616 o
7 5 1 220.633 216.760 10.259 26.465 o
7 5 2 338.562 385.921 13.555 12.151 o
7 5 3 50.431 34.567 5.188 209.473 o
7 5 4 3.322 -0.233 9.231 176.061 o
7 5 5 16.670 10.530 10.220 131.287 o
7 5 6 0.141 -6.089 11.403 117.540 o
7 5 7 1.740 -5.876 13.313 85.863 o
7 6 0 1308.490 1380.410 24.357 1.166 o
7 6 1 1147.770 1292.820 24.658 1.418 o
7 6 2 264.131 268.325 12.033 19.194 o
7 6 3 60.074 45.495 5.769 163.941 o
7 6 4 8.030 6.080 9.687 153.601 o
7 6 5 20.958 10.840 11.034 111.976 o
7 6 6 26.254 17.754 12.372 88.043 o
7 7 0 280.267 300.323 12.605 16.927 o
7 7 1 61.625 47.134 5.886 157.756 o
7 7 2 7.989 7.524 8.911 178.844 o
7 7 3 33.552 23.339 10.162 116.640 o
7 7 4 77.195 73.663 7.738 100.105 o
7 7 5 47.358 39.551 6.332 178.489 o
7 7 6 30.099 20.576 13.226 76.757 o
7 8 0 195.434 196.844 10.424 30.532 o
7 8 1 85.866 71.083 6.846 103.078 o
7 8 2 0.021 -2.909 9.386 173.552 o
7 8 3 27.509 14.157 10.550 116.265 o
7 8 4 5.290 5.740 11.141 119.209 o
7 8 5 3.421 2.279 12.082 103.154 o
7 9 0 159.685 164.497 9.929 39.703 o
7 9 1 37.557 28.235 10.084 113.719 o
7 9 2 11.554 6.739 10.356 132.830 o
7 9 3 17.377 16.028 11.199 109.538 o
7 9 4 69.252 61.116 7.844 110.223 o
7 10 0 35.504 27.867 10.239 112.536 o
7 10 1 29.355 28.459 10.957 104.252 o
7 10 2 46.886 35.944 5.663 202.068 o
7 10 3 66.988 68.368 8.009 107.085 o
7 11 0 1.491 -2.065 10.385 140.839 o
7 11 1 0.942 1.396 10.937 126.971 o
7 11 2 3.050 0.756 11.810 108.314 o
7 12 0 24.187 23.349 11.752 96.043 o
7 12 1 14.435 9.483 12.227 95.653 o
7 13 0 13.659 14.913 12.285 94.127 o
8 -19 0 22.161 18.074 12.819 83.900 o
8 -19 1 42.330 36.012 6.167 196.524 o
8 -19 2 57.516 48.782 7.553 131.635 o
8 -18 0 23.363 17.056 12.014 93.966 o
8 -18 1 25.094 16.203 12.062 92.800 o
8 -18 2 39.988 33.966 12.489 79.239 o
8 -18 3 68.026 37.932 6.506 143.729 o
8 -18 4 0.092 2.279 12.140 103.336 o
8 -17 0 40.492 29.554 11.897 86.305 o
8 -17 1 73.007 57.421 7.418 113.896 o
8 -17 2 29.350 22.893 11.616 95.854 o
8 -17 3 22.318 21.642 11.752 97.180 o
8 -17 4 17.433 11.102 11.897 99.154 o
8 -17 5 4.577 4.470 11.791 107.339 o
8 -16 0 360.760 438.010 16.949 9.927 o
8 -16 1 298.774 360.129 15.204 13.576 o
8 -16 2 90.625 100.133 8.310 78.618 o
8 -16 3 46.595 42.770 6.225 179.745 o
8 -16 4 1.734 2.182 10.928 126.574 o
8 -16 5 25.526 20.643 12.004 92.566 o
8 -16 6 10.029 11.616 12.431 93.855 o
8 -15 0 58.967 45.951 6.147 157.749 o
8 -15 1 125.011 95.043 8.135 64.818 o
8 -15 2 7.616 6.312 9.648 155.023 o
8 -15 3 2.022 3.636 9.696 159.412 o
8 -15 4 16.154 11.684 10.608 122.735 o
8 -15 5 32.053 27.392 11.645 93.328 o
8 -15 6 18.449 15.650 11.810 99.157 o
8 -15 7 18.574 11.665 12.770 86.573 o
8 -14 0 277.930 302.417 12.993 16.814 o
8 -14 1 8.464 7.864 8.959 176.319 o
8 -14 2 30.596 19.945 9.522 132.861 o
8 -14 3 10.479 7.117 9.512 156.264 o
8 -14 4 0.486 3.103 9.628 163.182 o
8 -14 5 10.089 3.442 10.646 127.984 o
8 -14 6 16.881 8.814 11.422 107.610 o
8 -14 7 7.395 5.052 12.053 101.699 o
8 -13 0 295.884 335.084 13.187 14.997 o
8 -13 1 52.367 57.703 6.041 161.059 o
8 -13 2 60.389 43.856 5.411 172.244 o
8 -13 3 146.144 170.189 10.181 41.284 o
8 -13 4 123.762 129.688 9.308 54.426 o
8 -13 5 147.879 185.558 11.083 37.572 o
8 -13 6 85.473 89.303 8.455 83.312 o
8 -13 7 53.031 46.746 7.398 140.730 o
8 -13 8 10.229 7.263 12.576 92.431 o
8 -12 0 56.155 40.152 5.246 188.132 o
8 -12 1 41.668 28.332 4.606 266.877 o
8 -12 2 33.967 25.424 8.775 144.347 o
8 -12 3 93.831 87.140 7.544 85.850 o
8 -12 4 32.182 29.089 9.793 122.452 o
8 -12 5 37.336 29.719 10.404 108.120 o
8 -12 6 11.886 9.512 10.433 129.894 o
8 -12 7 15.293 8.164 11.296 110.740 o
8 -12 8 0.076 -4.548 11.975 106.607 o
8 -11 0 68.431 68.621 6.002 131.414 o
8 -11 1 83.500 90.709 7.030 95.629 o
8 -11 2 0.671 1.493 7.767 250.612 o
8 -11 3 27.820 18.433 8.727 155.910 o
8 -11 4 36.708 31.203 5.314 248.612 o
8 -11 5 64.882 54.852 6.467 137.487 o
8 -11 6 11.601 8.048 10.162 137.090 o
8 -11 7 9.343 6.322 10.996 120.009 o
8 -11 8 10.888 2.763 11.926 102.885 o
8 -10 0 121.632 149.332 8.184 55.895 o
8 -10 1 170.361 180.254 9.192 37.570 o
8 -10 2 346.988 394.279 13.555 11.729 o
8 -10 3 568.298 659.201 17.735 4.963 o
8 -10 4 450.609 518.547 16.115 7.419 o
8 -10 5 254.048 302.970 13.119 18.111 o
8 -10 6 57.140 53.155 6.603 146.389 o
8 -10 7 11.106 5.362 10.773 124.034 o
8 -10 8 8.143 8.067 11.684 107.045 o
8 -9 0 187.054 153.317 8.135 38.698 o
8 -9 1 299.821 274.947 10.753 17.364 o
8 -9 2 278.970 267.220 10.908 18.848 o
8 -9 3 86.856 76.523 6.623 102.087 o
8 -9 4 40.762 31.474 5.158 241.829 o
8 -9 5 4.207 -1.241 8.795 192.501 o
8 -9 6 4.515 0.785 9.464 166.194 o
8 -9 7 15.396 6.351 10.394 129.537 o
8 -9 8 0.069 -1.231 11.374 118.174 o
8 -8 0 24.320 18.345 6.981 224.146 o
8 -8 1 104.039 112.874 7.204 74.892 o
8 -8 2 372.077 370.960 12.605 11.513 o
8 -8 3 373.234 399.166 13.478 10.858 o
8 -8 4 141.691 156.207 9.192 46.231 o
8 -8 5 34.065 29.748 4.683 290.790 o
8 -8 6 17.906 14.389 9.551 145.340 o
8 -8 7 41.717 28.517 11.063 96.415 o
8 -8 8 17.232 11.374 11.694 102.369 o
8 -8 9 8.766 -1.949 12.867 89.931 o
8 -7 0 1342.690 1438.650 22.602 1.108 o
8 -7 1 1121.400 994.071 19.140 1.752 o
8 -7 2 1166.100 1277.630 22.408 1.416 o
8 -7 3 647.403 727.725 17.880 4.059 o
8 -7 4 80.025 89.962 7.078 98.087 o
8 -7 5 24.162 24.260 8.775 155.388 o
8 -7 6 35.397 28.575 5.314 257.170 o
8 -7 7 54.949 52.825 6.865 144.646 o
8 -7 8 83.681 83.223 8.891 82.567 o
8 -7 9 33.554 22.331 13.022 77.605 o
8 -6 0 82.501 56.830 5.372 129.362 o
8 -6 1 99.694 112.690 7.301 76.698 o
8 -6 2 39.881 34.005 4.741 257.357 o
8 -6 3 7.820 7.078 7.069 273.814 o
8 -6 4 29.039 22.224 8.048 172.012 o
8 -6 5 0.167 1.047 8.193 226.645 o
8 -6 6 11.122 8.659 9.299 161.558 o
8 -6 7 23.819 12.285 10.656 117.016 o
8 -6 8 15.027 -3.268 12.033 100.116 o
8 -6 9 2.270 -1.474 12.440 98.097 o
8 -5 0 837.521 840.667 16.775 2.797 o
8 -5 1 632.789 672.272 15.601 4.461 o
8 -5 2 201.393 213.163 9.425 29.841 o
8 -5 3 231.806 253.848 10.501 23.298 o
8 -5 4 0.380 -6.545 7.844 247.760 o
8 -5 5 241.586 266.182 12.111 20.825 o
8 -5 6 101.015 110.906 8.562 69.518 o
8 -5 7 49.701 28.672 5.362 213.399 o
8 -5 8 45.894 32.444 12.343 78.971 o
8 -4 0 1558.850 1646.930 23.145 0.845 o
8 -4 1 1286.370 1369.000 21.662 1.208 o
8 -4 2 600.640 673.610 15.979 4.703 o
8 -4 3 45.433 55.201 5.411 190.889 o
8 -4 4 175.983 198.240 9.803 34.107 o
8 -4 5 238.414 256.990 12.033 21.477 o
8 -4 6 226.068 245.073 12.392 22.687 o
8 -4 7 118.346 123.783 9.696 55.535 o
8 -4 8 37.161 25.850 12.411 82.399 o
8 -3 0 34.825 36.477 4.771 270.037 o
8 -3 1 77.665 82.874 6.225 111.198 o
8 -3 2 33.443 26.403 4.441 314.461 o
8 -3 3 5.080 1.978 7.030 291.444 o
8 -3 4 21.905 11.374 8.290 181.374 o
8 -3 5 23.294 13.391 9.153 151.514 o
8 -3 6 39.469 21.923 10.210 112.393 o
8 -3 7 15.854 8.707 10.598 124.020 o
8 -3 8 2.326 3.529 11.393 115.987 o
8 -2 0 444.361 414.186 12.091 9.052 o
8 -2 1 289.050 268.742 10.220 18.463 o
8 -2 2 164.039 187.254 8.998 38.431 o
8 -2 3 150.104 147.034 8.533 46.929 o
8 -2 4 391.007 462.086 15.204 9.258 o
8 -2 5 86.642 76.765 7.195 97.039 o
8 -2 6 52.119 36.080 5.595 192.224 o
8 -2 7 42.269 37.651 6.186 194.341 o
8 -2 8 3.716 1.619 11.655 110.733 o
8 -1 0 753.145 792.341 16.542 3.288 o
8 -1 1 420.910 447.871 12.906 9.093 o
8 -1 2 68.141 69.416 6.080 130.236 o
8 -1 3 557.118 630.607 16.513 5.279 o
8 -1 4 492.122 535.952 16.406 6.624 o
8 -1 5 304.229 344.460 14.234 14.027 o
8 -1 6 127.942 116.384 9.163 55.728 o
8 -1 7 50.776 35.517 5.944 186.166 o
8 -1 8 4.842 4.043 11.858 106.123 o
8 0 0 75.897 70.036 5.798 124.350 o
8 0 1 2.404 5.459 6.564 334.920 o
8 0 2 8.226 3.762 7.311 260.737 o
8 0 3 134.916 105.796 8.029 59.379 o
8 0 4 50.017 33.190 5.614 199.510 o
8 0 5 10.009 4.131 9.047 173.533 o
8 0 6 6.686 4.509 10.123 142.856 o
8 0 7 0.845 1.522 11.073 123.914 o
8 0 8 0.238 -3.209 12.353 100.129 o
8 1 0 197.762 168.424 8.358 35.032 o
8 1 1 365.656 357.259 11.985 12.095 o
8 1 2 583.035 671.389 17.376 4.796 o
8 1 3 288.951 311.755 12.295 16.284 o
8 1 4 143.527 136.514 8.911 49.044 o
8 1 5 80.195 71.626 7.136 104.671 o
8 1 6 14.381 12.353 10.540 125.053 o
8 1 7 3.101 1.076 11.539 113.317 o
8 2 0 330.602 362.679 12.130 13.259 o
8 2 1 596.390 643.445 16.435 4.850 o
8 2 2 794.099 911.808 19.916 2.769 o
8 2 3 308.253 358.403 13.158 13.944 o
8 2 4 191.634 185.053 10.443 31.835 o
8 2 5 37.644 34.354 5.362 238.852 o
8 2 6 22.441 19.053 11.160 106.925 o
8 2 7 1.663 -2.211 11.985 105.861 o
8 3 0 158.900 148.741 8.348 44.954 o
8 3 1 18.959 15.049 7.970 195.056 o
8 3 2 9.144 7.825 8.155 208.554 o
8 3 3 17.347 8.145 8.630 177.428 o
8 3 4 2.033 2.201 9.192 177.718 o
8 3 5 3.574 1.794 10.171 144.689 o
8 3 6 0.384 -0.446 11.102 123.869 o
8 3 7 0.154 1.755 12.285 100.979 o
8 4 0 824.680 890.603 20.052 2.691 o
8 4 1 175.320 184.084 9.968 35.096 o
8 4 2 171.640 161.579 9.473 38.576 o
8 4 3 67.031 63.045 6.409 130.755 o
8 4 4 47.450 39.735 5.672 196.254 o
8 4 5 14.891 10.424 10.831 119.258 o
8 4 6 22.135 13.507 11.907 96.659 o
8 5 0 496.008 570.034 16.484 6.333 o
8 5 1 418.926 466.662 15.475 8.562 o
8 5 2 210.804 228.657 11.277 25.895 o
8 5 3 152.651 141.876 9.657 44.164 o
8 5 4 32.654 20.062 10.976 104.420 o
8 5 5 17.299 9.144 11.529 105.528 o
8 5 6 5.581 3.112 12.198 100.338 o
8 6 0 26.234 20.634 9.047 147.848 o
8 6 1 22.026 12.489 9.095 154.867 o
8 6 2 1.502 2.046 9.357 172.209 o
8 6 3 1.305 -2.240 10.210 145.789 o
8 6 4 2.583 1.842 10.811 128.909 o
8 6 5 6.785 -1.590 11.868 105.984 o
8 7 0 157.303 160.211 9.696 41.093 o
8 7 1 170.415 166.572 10.230 36.956 o
8 7 2 104.328 105.515 8.668 68.676 o
8 7 3 36.900 22.185 11.199 98.430 o
8 7 4 33.265 20.576 12.208 87.067 o
8 8 0 189.477 186.353 10.802 31.545 o
8 8 1 119.843 123.589 9.211 56.989 o
8 8 2 34.015 25.016 11.325 97.349 o
8 8 3 10.405 3.791 11.597 108.536 o
8 8 4 16.628 10.472 12.334 93.181 o
8 9 0 2.611 2.657 10.191 144.519 o
8 9 1 0.131 2.298 10.482 138.393 o
8 9 2 9.518 5.876 11.170 116.496 o
8 9 3 0.032 -0.281 11.829 109.260 o
8 10 0 84.942 85.977 8.504 84.174 o
8 10 1 73.976 60.097 7.825 106.966 o
8 10 2 30.164 19.431 12.450 85.456 o
8 11 0 52.212 37.709 6.555 166.168 o
8 11 1 15.277 10.928 12.246 94.815 o
8 12 0 7.689 5.381 12.528 94.224 o
9 -18 0 25.521 21.788 12.780 82.740 o
9 -18 1 43.477 35.430 13.109 72.009 o
9 -18 2 37.530 30.446 13.187 73.686 o
9 -18 3 21.651 13.177 12.877 84.107 o
9 -17 0 121.538 114.901 9.890 55.156 o
9 -17 1 142.949 159.222 11.442 40.024 o
9 -17 2 101.866 94.529 9.231 68.934 o
9 -17 3 18.990 10.928 12.314 92.547 o
9 -17 4 2.265 5.013 12.033 103.898 o
9 -16 0 0.589 -3.268 11.054 124.854 o
9 -16 1 2.355 -1.193 10.821 129.308 o
9 -16 2 0.066 -2.424 11.122 123.592 o
9 -16 3 45.735 21.943 12.014 84.426 o
9 -16 4 23.964 12.974 12.014 94.522 o
9 -16 5 1.017 2.356 11.858 107.909 o
9 -15 0 164.237 167.775 10.569 37.292 o
9 -15 1 86.796 83.436 8.019 87.695 o
9 -15 2 66.245 62.066 7.359 118.824 o
9 -15 3 54.017 42.421 6.167 168.282 o
9 -15 4 16.645 15.747 11.548 104.030 o
9 -15 5 6.187 6.332 11.597 109.794 o
9 -15 6 18.765 17.453 12.692 86.581 o
9 -14 0 265.484 292.566 13.168 17.712 o
9 -14 1 52.602 39.076 6.118 174.841 o
9 -14 2 1.063 -0.524 9.745 160.151 o
9 -14 3 1.351 4.567 9.939 152.033 o
9 -14 4 4.949 1.425 10.627 132.078 o
9 -14 5 20.057 15.698 11.461 103.926 o
9 -14 6 28.925 20.382 12.489 85.255 o
9 -13 0 0.438 3.772 8.707 198.693 o
9 -13 1 100.097 86.471 7.699 81.262 o
9 -13 2 121.872 115.938 8.610 59.999 o
9 -13 3 27.332 18.035 10.162 122.620 o
9 -13 4 1.651 -0.650 10.278 143.651 o
9 -13 5 0.006 -3.103 11.044 125.363 o
9 -13 6 0.437 -0.824 11.820 109.285 o
9 -13 7 0.039 3.529 12.111 103.632 o
9 -12 0 164.098 187.371 9.977 36.696 o
9 -12 1 435.347 503.256 16.222 7.798 o
9 -12 2 194.079 190.047 10.404 31.200 o
9 -12 3 91.594 97.690 8.213 79.406 o
9 -12 4 56.235 42.111 6.293 162.076 o
9 -12 5 92.527 95.906 8.601 76.784 o
9 -12 6 36.313 33.656 12.159 84.122 o
9 -12 7 32.202 34.654 13.051 75.909 o
9 -11 0 14.905 15.310 8.659 174.989 o
9 -11 1 3.578 -1.261 8.552 204.126 o
9 -11 2 0.476 -0.756 8.552 208.410 o
9 -11 3 6.726 7.437 8.901 180.725 o
9 -11 4 97.815 111.691 8.610 70.494 o
9 -11 5 122.379 112.225 9.173 58.185 o
9 -11 6 50.255 37.971 6.516 170.112 o
9 -11 7 12.112 5.585 12.140 98.499 o
9 -10 0 561.801 610.991 16.513 5.331 o
9 -10 1 437.440 469.416 14.826 8.256 o
9 -10 2 8.176 9.580 8.155 208.698 o
9 -10 3 0.886 -0.291 8.862 193.623 o
9 -10 4 4.225 1.610 9.231 174.316 o
9 -10 5 2.725 0.591 9.851 155.174 o
9 -10 6 3.940 -3.142 10.821 128.443 o
9 -10 7 31.580 21.613 12.091 88.931 o
9 -9 0 856.378 908.657 19.674 2.553 o
9 -9 1 235.980 240.904 10.627 23.412 o
9 -9 2 173.993 182.251 9.648 35.990 o
9 -9 3 297.744 346.157 13.187 14.658 o
9 -9 4 261.297 293.933 12.906 18.064 o
9 -9 5 159.424 186.896 11.228 35.267 o
9 -9 6 61.308 75.340 7.466 115.791 o
9 -9 7 33.398 29.351 12.091 86.789 o
9 -9 8 9.622 9.657 12.402 94.736 o
9 -8 0 45.391 35.120 4.741 237.221 o
9 -8 1 32.593 26.965 4.102 337.562 o
9 -8 2 237.591 251.686 10.986 22.525 o
9 -8 3 503.536 569.103 16.687 6.224 o
9 -8 4 157.445 160.619 9.784 40.836 o
9 -8 5 47.029 39.289 5.731 195.997 o
9 -8 6 1.326 -4.567 10.579 135.854 o
9 -8 7 1.379 -1.251 11.170 121.894 o
9 -8 8 15.337 6.981 12.537 91.380 o
9 -7 0 280.456 280.920 10.850 18.331 o
9 -7 1 87.186 70.851 6.264 107.569 o
9 -7 2 2.492 1.096 7.447 268.479 o
9 -7 3 21.229 15.000 8.329 178.450 o
9 -7 4 22.145 14.457 8.998 156.508 o
9 -7 5 71.741 72.557 7.185 111.019 o
9 -7 6 46.260 44.002 6.516 171.764 o
9 -7 7 0.152 -0.330 10.986 126.621 o
9 -7 8 1.891 0.640 12.004 105.324 o
9 -6 0 517.524 500.909 14.098 6.716 o
9 -6 1 501.633 533.819 14.971 6.634 o
9 -6 2 426.934 470.114 14.331 8.525 o
9 -6 3 528.057 657.562 17.783 5.356 o
9 -6 4 123.356 146.385 9.105 52.746 o
9 -6 5 135.598 149.749 9.716 47.117 o
9 -6 6 56.981 49.616 6.497 151.097 o
9 -6 7 17.130 12.314 11.374 107.518 o
9 -6 8 21.535 11.529 12.828 84.973 o
9 -5 0 146.050 158.107 8.261 47.207 o
9 -5 1 722.355 786.775 17.773 3.431 o
9 -5 2 912.592 991.812 20.915 2.230 o
9 -5 3 84.707 70.986 6.535 107.107 o
9 -5 4 64.086 41.258 5.527 165.543 o
9 -5 5 5.662 -0.941 9.512 163.863 o
9 -5 6 24.555 12.082 10.365 122.349 o
9 -5 7 43.492 27.974 12.111 83.064 o
9 -5 8 9.288 4.887 12.431 95.209 o
9 -4 0 0.545 2.608 6.613 342.573 o
9 -4 1 9.952 6.923 7.136 263.858 o
9 -4 2 36.648 34.732 5.401 239.704 o
9 -4 3 208.837 225.690 10.870 26.670 o
9 -4 4 146.189 142.719 9.299 46.506 o
9 -4 5 37.675 32.075 5.226 247.843 o
9 -4 6 0.165 -10.598 10.637 135.054 o
9 -4 7 0.872 -1.416 11.296 119.436 o
9 -4 8 3.596 0.727 12.518 96.375 o
9 -3 0 794.261 824.988 17.851 2.989 o
9 -3 1 886.244 998.134 20.246 2.306 o
9 -3 2 915.266 1020.650 21.109 2.180 o
9 -3 3 179.131 207.471 10.259 32.276 o
9 -3 4 275.817 317.058 13.264 16.405 o
9 -3 5 51.227 40.210 5.604 189.468 o
9 -3 6 25.084 12.654 10.899 111.727 o
9 -3 7 50.764 44.283 6.710 159.720 o
9 -2 0 1089.130 1143.500 21.254 1.656 o
9 -2 1 383.931 366.490 12.731 11.183 o
9 -2 2 21.365 13.740 8.019 190.437 o
9 -2 3 0.762 2.647 8.184 224.882 o
9 -2 4 23.102 12.256 9.144 152.535 o
9 -2 5 64.375 58.100 6.438 136.546 o
9 -2 6 45.534 38.300 6.351 182.484 o
9 -2 7 29.859 21.894 12.440 85.254 o
9 -1 0 31.936 32.172 4.955 280.572 o
9 -1 1 361.751 367.431 12.809 11.863 o
9 -1 2 332.782 373.762 13.129 12.687 o
9 -1 3 73.721 67.021 6.555 119.274 o
9 -1 4 0.764 -0.291 9.056 185.597 o
9 -1 5 1.345 -0.591 9.948 153.483 o
9 -1 6 1.187 -0.814 10.918 127.658 o
9 -1 7 20.281 12.809 12.624 87.691 o
9 0 0 1005.280 1064.020 20.585 1.911 o
9 0 1 426.243 486.287 14.612 8.338 o
9 0 2 247.236 268.490 11.626 20.637 o
9 0 3 134.769 152.697 9.376 47.911 o
9 0 4 103.543 106.174 8.281 70.974 o
9 0 5 124.564 113.825 9.396 56.321 o
9 0 6 127.934 147.325 10.986 45.516 o
9 0 7 47.626 45.941 7.631 143.083 o
9 1 0 56.114 45.233 5.343 180.667 o
9 1 1 12.219 4.771 7.670 229.865 o
9 1 2 84.794 78.375 6.875 100.720 o
9 1 3 106.171 103.915 7.873 72.484 o
9 1 4 145.631 150.554 9.929 44.091 o
9 1 5 41.983 34.441 11.519 89.146 o
9 1 6 18.919 18.539 12.082 94.432 o
9 2 0 354.666 387.376 13.420 11.624 o
9 2 1 129.575 135.854 8.484 54.507 o
9 2 2 3.764 1.193 8.494 205.759 o
9 2 3 4.491 3.054 9.144 176.515 o
9 2 4 22.319 11.199 10.491 121.495 o
9 2 5 23.715 14.564 11.480 102.210 o
9 2 6 39.451 30.117 13.255 72.570 o
9 3 0 264.857 286.370 11.936 18.607 o
9 3 1 157.877 176.802 9.570 39.575 o
9 3 2 124.234 116.830 8.523 59.345 o
9 3 3 156.751 155.344 9.958 41.135 o
9 3 4 213.599 255.594 13.187 22.605 o
9 3 5 92.081 83.737 8.901 77.993 o
9 3 6 34.837 21.729 13.594 71.790 o
9 4 0 3.095 -0.863 8.436 210.359 o
9 4 1 181.876 183.987 10.259 33.613 o
9 4 2 161.313 158.631 9.939 39.937 o
9 4 3 141.526 126.430 9.561 49.028 o
9 4 4 37.862 33.074 11.868 86.987 o
9 4 5 3.477 6.002 11.800 107.298 o
9 5 0 1.795 1.076 8.678 199.995 o
9 5 1 13.391 8.804 9.289 159.569 o
9 5 2 5.581 3.045 10.045 146.328 o
9 5 3 63.245 61.504 7.757 116.467 o
9 5 4 56.881 39.949 6.545 157.352 o
9 5 5 49.070 36.826 13.585 66.361 o
9 6 0 73.588 62.405 6.943 116.943 o
9 6 1 217.255 217.856 11.694 25.377 o
9 6 2 336.093 386.581 15.989 11.560 o
9 6 3 140.193 129.377 10.870 45.125 o
9 6 4 54.846 35.964 13.526 65.457 o
9 7 0 185.715 206.860 11.461 29.789 o
9 7 1 134.382 124.006 9.822 50.430 o
9 7 2 28.744 18.384 11.965 92.271 o
9 7 3 0.168 -7.195 12.431 98.906 o
9 8 0 18.230 10.821 10.811 117.658 o
9 8 1 68.533 56.694 7.456 117.889 o
9 8 2 99.710 84.823 9.260 71.770 o
9 9 0 161.281 176.016 11.781 34.803 o
9 9 1 132.253 136.087 11.325 44.792 o
9 9 2 22.573 13.109 12.828 84.418 o
9 10 0 24.124 11.839 12.382 89.688 o
10 -17 0 10.373 10.617 11.936 101.411 o
10 -17 1 6.155 7.495 11.985 102.821 o
10 -17 2 10.744 5.546 12.392 95.189 o
10 -17 3 74.759 42.169 7.020 125.018 o
10 -16 0 72.545 64.655 7.621 108.655 o
10 -16 1 106.736 111.992 9.667 61.428 o
10 -16 2 103.746 100.967 9.900 63.300 o
10 -16 3 112.980 100.754 9.241 63.251 o
10 -16 4 48.738 46.300 7.263 149.124 o
10 -15 0 35.947 20.120 11.131 100.380 o
10 -15 1 54.154 38.960 6.681 159.267 o
10 -15 2 1.301 -2.696 11.277 119.648 o
10 -15 3 1.377 2.143 11.354 117.510 o
10 -15 4 0.725 -5.430 12.091 104.339 o
10 -15 5 0.711 1.067 12.227 101.868 o
10 -14 0 36.214 26.539 10.821 103.203 o
10 -14 1 151.912 152.833 10.482 41.180 o
10 -14 2 252.148 244.511 13.100 20.160 o
10 -14 3 152.346 180.554 11.926 35.553 o
10 -14 4 27.006 28.255 12.004 90.517 o
10 -14 5 4.942 1.871 11.810 107.361 o
10 -13 0 268.119 303.755 13.875 16.873 o
10 -13 1 414.034 467.011 16.765 8.459 o
10 -13 2 208.134 202.710 11.636 27.188 o
10 -13 3 124.276 130.764 9.706 52.697 o
10 -13 4 19.300 8.717 11.345 107.844 o
10 -13 5 39.227 33.675 12.353 80.962 o
10 -13 6 16.038 8.029 12.489 91.644 o
10 -12 0 31.326 15.233 9.764 128.926 o
10 -12 1 0.901 0.931 9.512 167.764 o
10 -12 2 0.077 0.669 9.667 163.271 o
10 -12 3 0.116 -0.204 9.939 154.716 o
10 -12 4 0.347 -0.853 10.404 141.044 o
10 -12 5 9.985 9.153 11.141 116.022 o
10 -12 6 5.358 -1.726 12.353 98.475 o
10 -11 0 526.154 563.140 17.347 5.929 o
10 -11 1 519.244 516.278 17.114 6.325 o
10 -11 2 117.763 112.244 8.853 61.138 o
10 -11 3 14.527 11.694 9.900 140.176 o
10 -11 4 4.646 6.962 10.394 136.315 o
10 -11 5 7.665 3.694 11.219 116.967 o
10 -11 6 9.460 5.992 11.985 101.860 o
10 -10 0 571.272 583.716 17.143 5.334 o
10 -10 1 204.856 194.779 10.162 29.751 o
10 -10 2 28.984 25.637 9.551 131.212 o
10 -10 3 65.295 69.328 7.020 120.748 o
10 -10 4 97.080 114.755 8.921 68.432 o
10 -10 5 87.752 79.597 8.368 85.470 o
10 -10 6 59.833 48.695 7.670 127.290 o
10 -10 7 18.092 12.751 12.809 86.070 o
10 -9 0 1.406 1.522 8.329 217.086 o
10 -9 1 8.507 3.258 8.193 211.373 o
10 -9 2 4.603 -1.697 8.921 186.775 o
10 -9 3 79.083 68.291 6.923 109.302 o
10 -9 4 12.756 4.325 10.094 139.312 o
10 -9 5 2.397 2.085 10.443 138.062 o
10 -9 6 1.388 -1.028 11.509 114.844 o
10 -9 7 6.281 3.432 12.421 96.570 o
10 -8 0 181.333 186.508 9.648 34.421 o
10 -8 1 14.774 14.961 8.339 187.031 o
10 -8 2 18.059 17.831 8.795 165.264 o
10 -8 3 111.404 138.259 9.076 57.889 o
10 -8 4 89.104 90.961 8.572 80.018 o
10 -8 5 97.816 95.828 8.756 73.259 o
10 -8 6 66.609 58.236 7.573 117.394 o
10 -8 7 6.536 7.398 12.053 101.584 o
10 -7 0 141.497 151.941 8.426 48.824 o
10 -7 1 144.896 161.676 9.066 45.108 o
10 -7 2 287.167 332.582 13.332 15.411 o
10 -7 3 313.771 380.026 14.428 12.889 o
10 -7 4 91.424 78.675 7.883 87.386 o
10 -7 5 36.718 26.548 11.277 96.396 o
10 -7 6 12.329 4.819 11.519 108.861 o
10 -7 7 0.936 0.310 11.985 106.068 o
10 -6 0 5.601 3.888 7.515 253.618 o
10 -6 1 16.061 5.721 8.193 197.715 o
10 -6 2 75.120 64.015 6.526 119.737 o
10 -6 3 32.505 28.022 9.696 124.495 o
10 -6 4 2.540 5.566 9.425 167.136 o
10 -6 5 16.350 9.066 10.811 119.210 o
10 -6 6 0.071 -1.018 11.199 121.884 o
10 -6 7 8.878 4.053 12.266 97.970 o
10 -5 0 145.740 158.001 8.921 45.700 o
10 -5 1 174.116 217.807 10.375 32.091 o
10 -5 2 370.345 457.489 15.252 9.796 o
10 -5 3 294.635 336.887 13.807 14.770 o
10 -5 4 139.799 141.663 9.803 46.832 o
10 -5 5 38.866 25.598 11.238 96.135 o
10 -5 6 3.133 3.752 11.063 122.426 o
10 -5 7 0.490 2.356 12.053 104.677 o
10 -4 0 550.348 625.885 16.862 5.350 o
10 -4 1 551.218 624.837 17.288 5.319 o
10 -4 2 437.362 485.056 15.786 7.983 o
10 -4 3 31.053 25.588 9.454 131.602 o
10 -4 4 37.199 24.105 10.278 111.998 o
10 -4 5 6.564 5.740 10.278 138.419 o
10 -4 6 4.199 1.435 11.374 116.004 o
10 -4 7 17.826 9.590 12.605 89.246 o
10 -3 0 39.330 31.396 5.100 248.851 o
10 -3 1 14.496 12.140 8.038 201.713 o
10 -3 2 145.117 141.643 8.969 47.788 o
10 -3 3 71.233 55.657 6.438 129.746 o
10 -3 4 6.388 3.336 9.561 160.122 o
10 -3 5 2.711 1.125 10.414 138.928 o
10 -3 6 9.391 5.294 11.480 110.761 o
10 -2 0 933.921 1001.050 21.128 2.156 o
10 -2 1 906.801 1029.390 22.030 2.179 o
10 -2 2 374.453 425.550 14.971 10.153 o
10 -2 3 72.407 77.027 7.456 105.491 o
10 -2 4 0.362 1.668 9.561 166.230 o
10 -2 5 2.354 3.277 10.617 133.301 o
10 -2 6 3.424 -0.465 11.994 105.053 o
10 -1 0 480.397 551.378 16.125 6.707 o
10 -1 1 58.426 51.070 5.924 158.970 o
10 -1 2 1.669 2.686 8.601 202.648 o
10 -1 3 0.801 2.065 9.134 181.332 o
10 -1 4 18.092 11.364 10.259 129.148 o
10 -1 5 34.980 34.897 12.101 85.046 o
10 -1 6 59.489 49.674 7.951 122.660 o
10 0 0 282.186 283.907 12.014 17.572 o
10 0 1 242.046 243.338 11.577 22.067 o
10 0 2 8.226 3.132 8.950 179.640 o
10 0 3 6.042 5.149 9.425 164.036 o
10 0 4 35.323 19.363 10.860 105.013 o
10 0 5 0.925 -0.330 11.432 116.602 o
10 0 6 0.018 -7.233 13.012 90.303 o
10 1 0 559.961 610.817 17.482 5.290 o
10 1 1 43.995 40.705 5.362 212.611 o
10 1 2 8.107 4.480 9.047 175.423 o
10 1 3 1.942 -2.123 10.094 148.692 o
10 1 4 54.016 45.214 6.390 161.035 o
10 1 5 65.268 65.178 7.757 113.013 o
10 2 0 5.045 5.420 8.523 199.687 o
10 2 1 5.680 3.898 8.988 180.620 o
10 2 2 41.421 26.616 10.162 110.442 o
10 2 3 83.564 72.858 7.825 94.953 o
10 2 4 75.316 53.882 7.311 114.744 o
10 2 5 42.444 38.068 13.575 67.958 o
10 3 0 70.694 67.409 6.720 120.135 o
10 3 1 4.913 -0.979 9.279 172.668 o
10 3 2 5.700 4.829 9.948 148.321 o
10 3 3 0.017 -0.417 10.850 129.879 o
10 3 4 8.374 4.596 12.004 102.214 o
10 4 0 17.549 10.540 9.434 150.537 o
10 4 1 13.896 7.738 9.958 140.688 o
10 4 2 58.247 43.313 6.196 159.966 o
10 4 3 141.509 158.233 11.461 40.338 o
10 4 4 77.394 82.244 8.833 86.831 o
10 5 0 30.961 16.823 10.249 118.894 o
10 5 1 82.784 68.853 7.495 100.118 o
10 5 2 123.767 126.915 10.181 51.696 o
10 5 3 49.519 38.921 13.032 70.457 o
10 6 0 4.575 -0.805 10.695 131.073 o
10 6 1 0.190 -0.747 11.180 122.250 o
10 6 2 25.907 20.576 12.498 86.124 o
10 6 3 24.277 23.329 13.061 79.746 o
10 7 0 103.112 87.286 8.542 74.084 o
10 7 1 179.110 192.296 12.624 29.869 o
10 7 2 166.740 201.518 13.100 30.088 o
10 8 0 64.052 39.425 13.197 65.055 o
10 8 1 56.352 59.244 8.407 114.346 o
10 9 0 28.567 22.040 13.274 76.483 o
11 -16 0 11.402 10.656 11.965 100.543 o
11 -16 1 1.871 1.241 12.101 103.557 o
11 -16 2 9.508 1.871 12.683 91.987 o
11 -15 0 76.215 82.816 8.562 89.770 o
11 -15 1 77.248 62.085 7.553 106.584 o
11 -15 2 85.577 67.127 7.999 93.927 o
11 -15 3 50.152 48.307 7.379 143.663 o
11 -14 0 50.844 41.878 6.109 175.726 o
11 -14 1 42.955 34.267 11.975 83.572 o
11 -14 2 16.503 8.950 11.471 106.916 o
11 -14 3 9.287 -1.464 12.692 92.199 o
11 -14 4 0.123 -7.263 12.343 100.323 o
11 -13 0 45.145 32.967 11.364 89.947 o
11 -13 1 67.737 67.564 7.728 110.214 o
11 -13 2 21.438 15.834 11.354 104.990 o
11 -13 3 4.153 -0.902 11.548 112.911 o
11 -13 4 4.734 4.741 11.800 107.051 o
11 -12 0 251.745 283.732 13.226 18.790 o
11 -12 1 166.708 174.950 10.889 35.674 o
11 -12 2 58.181 44.254 6.021 162.947 o
11 -12 3 16.038 13.206 11.238 110.205 o
11 -12 4 23.934 19.451 11.956 94.083 o
11 -12 5 30.421 26.878 12.692 81.369 o
11 -11 0 46.325 24.628 10.404 104.293 o
11 -11 1 3.203 3.190 9.648 160.163 o
11 -11 2 0.206 -0.727 10.094 149.934 o
11 -11 3 0.032 1.377 10.462 139.250 o
11 -11 4 4.112 3.985 11.141 120.223 o
11 -11 5 5.142 5.023 12.023 103.011 o
11 -10 0 131.253 129.028 8.901 53.659 o
11 -10 1 55.705 45.097 5.663 174.335 o
11 -10 2 20.342 18.530 10.191 126.645 o
11 -10 3 10.935 3.927 10.472 131.371 o
11 -10 4 22.622 21.254 11.422 102.089 o
11 -10 5 24.271 24.115 12.198 89.833 o
11 -9 0 85.332 89.341 7.524 90.740 o
11 -9 1 39.666 40.802 5.275 226.948 o
11 -9 2 22.923 18.442 10.055 127.772 o
11 -9 3 200.946 239.246 12.741 24.867 o
11 -9 4 118.083 127.535 10.200 53.123 o
11 -9 5 108.243 121.989 9.977 57.828 o
11 -9 6 53.795 40.802 7.263 146.140 o
11 -8 0 4.231 2.094 8.795 191.180 o
11 -8 1 6.582 4.247 9.047 177.224 o
11 -8 2 52.053 39.958 5.750 184.259 o
11 -8 3 73.021 61.067 7.069 116.567 o
11 -8 4 19.533 5.352 11.025 114.338 o
11 -8 5 8.516 5.449 11.509 110.578 o
11 -8 6 0.119 -0.378 12.295 101.117 o
11 -7 0 16.763 16.872 8.824 166.373 o
11 -7 1 109.609 104.196 8.174 69.244 o
11 -7 2 36.063 36.778 6.012 215.027 o
11 -7 3 226.717 256.350 13.100 21.601 o
11 -7 4 73.656 67.467 7.912 103.308 o
11 -7 5 54.409 40.676 6.758 155.922 o
11 -7 6 26.962 25.278 13.003 79.309 o
11 -6 0 190.834 228.948 10.908 28.498 o
11 -6 1 402.012 436.051 15.572 9.240 o
11 -6 2 463.105 517.141 17.347 7.089 o
11 -6 3 283.240 305.743 14.001 15.970 o
11 -6 4 105.463 111.371 9.328 63.652 o
11 -6 5 37.756 34.034 12.295 82.037 o
11 -6 6 6.125 3.917 12.382 97.132 o
11 -5 0 58.355 53.407 6.186 152.260 o
11 -5 1 97.320 74.283 7.146 90.728 o
11 -5 2 77.883 57.819 6.807 116.649 o
11 -5 3 6.106 3.723 9.968 147.879 o
11 -5 4 2.209 -1.910 10.889 127.795 o
11 -5 5 0.582 -0.378 11.248 120.599 o
11 -5 6 1.831 -2.036 12.411 98.693 o
11 -4 0 177.220 169.607 9.784 36.296 o
11 -4 1 194.358 196.563 10.724 30.308 o
11 -4 2 245.173 272.999 12.925 19.772 o
11 -4 3 93.752 80.789 8.038 84.162 o
11 -4 4 51.997 39.571 6.099 175.966 o
11 -4 5 24.566 13.400 12.091 93.135 o
11 -3 0 685.693 733.184 19.625 3.732 o
11 -3 1 639.150 672.776 19.383 4.247 o
11 -3 2 256.489 267.956 12.654 19.348 o
11 -3 3 102.991 113.214 8.872 66.557 o
11 -3 4 26.093 20.634 11.539 98.893 o
11 -3 5 25.624 18.462 12.188 90.500 o
11 -2 0 86.196 69.008 7.243 99.871 o
11 -2 1 11.943 6.564 9.386 159.037 o
11 -2 2 0.190 -0.349 9.580 166.448 o
11 -2 3 0.146 1.047 10.268 144.576 o
11 -2 4 0.022 -1.076 11.170 122.542 o
11 -2 5 0.330 -1.513 12.033 105.488 o
11 -1 0 338.799 392.777 14.603 11.753 o
11 -1 1 190.218 198.744 10.957 30.402 o
11 -1 2 65.236 53.543 6.341 139.902 o
11 -1 3 31.093 19.257 10.870 107.168 o
11 -1 4 22.778 12.372 11.742 99.070 o
11 -1 5 26.448 15.844 12.964 81.275 o
11 0 0 349.328 366.975 14.583 11.836 o
11 0 1 71.990 57.441 6.700 124.271 o
11 0 2 71.377 56.054 6.710 125.556 o
11 0 3 37.035 26.325 11.529 92.934 o
11 0 4 83.783 83.708 8.998 81.543 o
11 1 0 0.075 0.688 9.386 173.171 o
11 1 1 3.274 4.305 9.638 159.934 o
11 1 2 4.526 5.246 10.268 140.218 o
11 1 3 7.070 2.027 11.277 116.483 o
11 1 4 2.039 -2.250 12.722 93.904 o
11 2 0 80.935 75.718 7.185 101.925 o
11 2 1 27.850 20.323 10.724 111.118 o
11 2 2 59.640 51.012 6.458 147.107 o
11 2 3 70.630 55.841 7.602 114.410 o
11 2 4 54.670 38.601 13.934 62.203 o
11 3 0 95.949 90.175 7.932 80.988 o
11 3 1 94.959 79.548 7.951 84.466 o
11 3 2 113.631 104.720 9.367 61.686 o
11 3 3 91.177 82.477 8.862 79.048 o
11 4 0 1.252 2.046 10.424 139.305 o
11 4 1 0.579 2.298 10.976 126.036 o
11 4 2 7.242 5.013 12.149 100.197 o
11 5 0 65.562 48.229 7.098 130.573 o
11 5 1 49.961 33.093 6.002 188.645 o
11 5 2 68.011 55.957 8.164 109.350 o
11 6 0 84.113 74.380 8.290 89.901 o
11 6 1 80.302 62.628 8.145 97.721 o
11 7 0 2.355 -0.388 12.605 95.541 o
12 -15 0 4.673 2.056 12.295 99.279 o
12 -15 1 0.093 -0.436 12.256 101.766 o
12 -14 0 47.787 35.682 12.702 74.368 o
12 -14 1 82.665 72.053 8.203 92.354 o
12 -14 2 65.415 48.472 6.836 134.802 o
12 -13 0 72.601 57.169 7.069 118.879 o
12 -13 1 90.974 82.952 8.484 81.803 o
12 -13 2 44.533 34.150 12.896 73.816 o
12 -13 3 12.138 4.334 12.537 92.836 o
12 -12 0 0.158 0.650 10.879 128.939 o
12 -12 1 0.392 -4.751 11.500 115.461 o
12 -12 2 8.445 7.447 11.471 110.882 o
12 -12 3 6.178 6.555 11.888 104.620 o
12 -11 0 152.078 137.891 10.249 43.261 o
12 -11 1 138.299 150.156 10.191 45.111 o
12 -11 2 73.665 61.697 7.350 112.208 o
12 -11 3 31.936 20.905 12.624 82.599 o
12 -11 4 20.000 14.224 12.702 86.580 o
12 -10 0 124.939 124.151 9.260 55.093 o
12 -10 1 60.963 48.801 6.400 147.867 o
12 -10 2 0.222 -0.281 11.141 123.087 o
12 -10 3 23.705 17.492 11.878 95.651 o
12 -10 4 12.089 6.215 12.149 98.244 o
12 -9 0 16.356 9.910 10.278 130.378 o
12 -9 1 40.790 28.284 11.063 96.928 o
12 -9 2 13.478 11.956 10.637 123.646 o
12 -9 3 0.338 -1.774 11.451 116.463 o
12 -9 4 0.159 1.067 11.713 111.181 o
12 -8 0 137.715 138.424 9.425 48.858 o
12 -8 1 124.921 151.436 10.162 48.245 o
12 -8 2 24.225 18.811 11.238 104.829 o
12 -8 3 72.435 61.319 7.582 110.637 o
12 -8 4 42.172 33.704 12.799 75.510 o
12 -7 0 45.358 32.415 5.304 221.809 o
12 -7 1 10.874 8.639 10.055 140.109 o
12 -7 2 52.455 34.044 5.682 191.316 o
12 -7 3 35.704 27.276 11.519 93.436 o
12 -7 4 47.835 35.062 5.954 192.366 o
12 -6 0 85.363 79.859 7.127 97.440 o
12 -6 1 42.428 35.159 5.420 221.986 o
12 -6 2 4.648 3.161 10.443 136.302 o
12 -6 3 6.986 7.563 11.267 115.402 o
12 -6 4 1.024 -2.948 11.742 110.502 o
12 -5 0 180.231 179.895 10.637 33.590 o
12 -5 1 74.375 65.838 7.020 113.614 o
12 -5 2 114.031 119.487 9.541 58.228 o
12 -5 3 72.653 73.973 8.125 99.332 o
12 -5 4 54.672 58.546 7.592 128.805 o
12 -4 0 7.281 1.173 9.619 158.436 o
12 -4 1 43.376 24.163 10.608 103.107 o
12 -4 2 90.102 73.507 7.883 89.853 o
12 -4 3 69.236 67.825 7.612 110.237 o
12 -4 4 25.438 16.299 12.402 88.213 o
12 -3 0 8.800 7.330 9.754 150.441 o
12 -3 1 8.350 6.545 10.326 135.725 o
12 -3 2 0.345 -7.340 10.986 126.522 o
12 -3 3 16.947 11.238 11.684 102.674 o
12 -3 4 8.644 1.784 12.402 96.362 o
12 -2 0 166.386 180.341 10.598 35.807 o
12 -2 1 216.618 254.566 12.857 22.686 o
12 -2 2 158.055 174.737 11.432 36.076 o
12 -2 3 110.761 105.515 9.434 62.259 o
12 -2 4 43.517 37.059 13.614 67.498 o
12 -1 0 179.201 169.307 10.821 34.259 o
12 -1 1 98.402 89.157 8.484 76.296 o
12 -1 2 60.532 40.899 6.564 150.926 o
12 -1 3 6.457 6.700 11.956 103.342 o
12 0 0 6.431 5.197 10.511 132.863 o
12 0 1 22.817 11.762 11.054 110.422 o
12 0 2 36.993 24.522 12.159 85.550 o
12 0 3 15.888 7.476 12.586 90.464 o
12 1 0 245.994 248.137 13.100 20.469 o
12 1 1 180.250 191.996 11.645 31.192 o
12 1 2 70.100 49.916 7.670 116.691 o
12 2 0 95.225 78.647 8.765 78.653 o
12 2 1 21.438 18.859 11.868 96.428 o
12 2 2 2.625 -2.133 12.334 99.674 o
12 3 0 59.699 42.635 6.322 155.676 o
12 3 1 67.483 49.713 7.204 126.034 o
12 4 0 126.363 113.921 9.958 53.610 o
12 4 1 19.826 15.912 12.644 87.094 o
12 5 0 0.712 -0.863 12.557 96.769 o
13 -13 0 20.985 22.175 12.663 85.481 o
13 -12 0 98.493 96.749 9.144 70.406 o
13 -12 1 136.952 118.556 10.162 49.366 o
13 -11 0 22.201 12.789 11.888 97.060 o
13 -11 1 14.734 4.577 12.382 94.153 o
13 -11 2 10.971 3.355 12.576 92.813 o
13 -10 0 153.875 160.658 11.636 37.520 o
13 -10 1 198.597 211.718 12.683 26.524 o
13 -10 2 95.330 87.043 9.124 74.114 o
13 -9 0 277.270 298.616 14.796 16.062 o
13 -9 1 107.679 82.486 8.688 72.192 o
13 -9 2 6.057 5.052 11.849 105.624 o
13 -9 3 10.117 6.244 12.557 92.901 o
13 -8 0 1.897 -1.842 11.616 112.547 o
13 -8 1 44.388 33.675 5.944 201.593 o
13 -8 2 2.114 1.241 11.539 113.700 o
13 -8 3 0.189 -4.645 12.537 97.225 o
13 -7 0 258.053 291.169 14.215 17.598 o
13 -7 1 87.806 80.624 8.339 85.371 o
13 -7 2 11.802 11.306 11.713 104.348 o
13 -7 3 12.427 10.996 12.392 93.709 o
13 -6 0 50.875 30.252 11.558 85.818 o
13 -6 1 4.661 4.741 11.063 121.404 o
13 -6 2 25.203 12.867 12.062 93.394 o
13 -6 3 62.165 64.635 8.222 109.827 o
13 -5 0 40.776 27.819 11.471 91.709 o
13 -5 1 0.121 -0.407 10.996 126.413 o
13 -5 2 17.099 11.752 11.752 101.419 o
13 -5 3 34.298 24.202 13.294 74.431 o
13 -4 0 11.742 4.800 10.908 120.950 o
13 -4 1 6.527 4.237 11.296 115.832 o
13 -4 2 7.532 7.311 12.072 100.921 o
13 -3 0 10.316 6.768 10.966 119.979 o
13 -3 1 102.729 93.162 9.434 67.700 o
13 -3 2 145.326 157.157 11.287 40.144 o
13 -2 0 45.004 28.420 11.868 85.092 o
13 -2 1 53.013 36.322 12.547 74.020 o
13 -2 2 11.765 9.454 12.237 96.463 o
13 -1 0 34.040 27.363 11.956 88.564 o
13 -1 1 55.449 41.064 6.836 152.516 o
13 -1 2 100.444 84.755 9.454 70.271 o
13 0 0 179.596 197.309 12.275 30.013 o
13 0 1 102.621 106.581 9.638 64.040 o
13 1 0 4.029 3.103 12.188 101.033 o
13 2 0 105.697 85.686 8.911 71.048 o
14 -10 0 62.944 34.635 13.575 63.235 o
14 -9 0 23.242 24.425 13.032 80.205 o
14 -8 0 89.220 71.694 8.310 87.419 o
14 -7 0 0.291 2.240 11.907 107.331 o
14 -7 1 4.754 5.265 12.208 100.096 o
14 -6 0 72.746 84.736 8.698 90.067 o
14 -6 1 38.607 29.651 13.197 73.405 o
14 -5 0 26.387 24.609 12.343 87.156 o
14 -4 0 1.613 0.873 11.975 105.891 o
14 -3 0 37.513 30.155 12.954 75.960 o
14 -2 0 133.610 138.182 11.296 44.362 o
;
_iucr_refine_instructions_details
;
TITL r26
REM r26
REM 384 parameters refined using 6 restraints
CELL 0.71078 10.551 14.251 9.551 99.77 105.1 104.77
ZERR 2 0.002 0.003 0.002 0.02 0.02 0.02
LATT 1
SFAC C H Cl N O P Pd S
UNIT 59 50 2 4 2 2 2 1
DFIX 1.35 0.01 C27 C10
RIGU C31 O
RIGU C2 C5 C6 C7 C9 C12
FLAT C27 C10 C11 C26
RIGU C17 C20 C24 C29 C33 C34
RIGU C13 C11 C10 C26 C25 C4

L.S. 4
PLAN  7 0 -1.5
CONF
wpdb 
MORE -1
BOND $H
fmap 2
acta 
EXTI 0.025986
WGHT 0.080665 0.727186
FVAR 1.015541
REM <olex2.extras>
REM <restraints
REM  <item "olex2.restraint.angle 120 C31 C33 C20">
REM  <item "olex2.restraint.angle 120 C5 C12 C6">
REM >
REM <HklSrc "%.\\malbac.hkl">
REM </olex2.extras>

Pd    7     0.27736  0.17001  0.00002  11.00000  0.03729  0.04671  0.06029 =
 0.00856  0.02314  0.01408 
P     6     0.18939  0.26030  0.13620  11.00000  0.03526  0.03942  0.04958 =
 0.00952  0.01934  0.01228 
Cl    3     0.49494  0.27128  0.14058  11.00000  0.03785  0.08282  0.10483 =
 -0.01197  0.02441  0.00938 
O     5     0.34772  0.08272 -0.13885  11.00000  0.04512  0.04920  0.06458 =
 0.00530  0.02961  0.01694 
N1    4     0.09610  0.07652 -0.14086  11.00000  0.04714  0.04034  0.04571 =
 0.00981  0.01895  0.01678 
C1    1     0.25718  0.27400  0.33680  11.00000  0.04342  0.04531  0.05312 =
 0.01272  0.01964  0.01664 
C2    1     0.00296  0.20402  0.08810  11.00000  0.03650  0.04625  0.05361 =
 0.01347  0.01974  0.01619 
C3    1     0.21505  0.38617  0.10669  11.00000  0.04528  0.04239  0.05031 =
 0.01217  0.01344  0.01227 
C5    1    -0.06337  0.24462  0.17952  11.00000  0.04165  0.05742  0.06348 =
 0.00819  0.02328  0.01871 
AFIX 43
H5    2    -0.01094  0.29505  0.26623  11.00000 -1.20000 
AFIX 0
C6    1    -0.28543  0.13522  0.01714  11.00000  0.03589  0.06908  0.07314 =
 0.01909  0.02329  0.01969 
AFIX 43
H6    2    -0.38129  0.11335 -0.00819  11.00000 -1.20000 
AFIX 0
C7    1    -0.22059  0.09194 -0.07157  11.00000  0.03340  0.06225  0.06436 =
 0.00887  0.01410  0.01355 
AFIX 43
H7    2    -0.27396  0.03953 -0.15552  11.00000 -1.20000 
AFIX 0
C8    1     0.19533  0.20363  0.40325  11.00000  0.05773  0.05118  0.06196 =
 0.01758  0.02500  0.01953 
AFIX 43
H8    2     0.11396  0.15249  0.34693  11.00000 -1.20000 
AFIX 0
C9    1    -0.07616  0.12484 -0.03858  11.00000  0.03559  0.05201  0.05320 =
 0.01648  0.01789  0.01704 
C12   1    -0.20647  0.21116  0.14353  11.00000  0.04565  0.06471  0.07362 =
 0.01441  0.02926  0.02474 
AFIX 43
H12   2    -0.24897  0.24013  0.20496  11.00000 -1.20000 
AFIX 0
C14   1     0.37979  0.34997  0.42306  11.00000  0.04726  0.06311  0.06124 =
 0.01723  0.01543  0.01169 
AFIX 43
H14   2     0.42179  0.39809  0.38055  11.00000 -1.20000 
AFIX 0
C15   1     0.29010  0.41641  0.01387  11.00000  0.14150  0.06297  0.11584 =
 0.03907  0.09152  0.03554 
AFIX 43
H15   2     0.32672  0.37256 -0.03376  11.00000 -1.20000 
AFIX 0
C16   1     0.43846  0.35321  0.57225  11.00000  0.05683  0.08754  0.06377 =
 0.01095  0.00493  0.01589 
AFIX 43
H16   2     0.52084  0.40320  0.62908  11.00000 -1.20000 
AFIX 0
C17   1     0.16618 -0.10666 -0.49145  11.00000  0.08197  0.07683  0.06220 =
 0.01490  0.03131  0.03856 
AFIX 43
H17   2     0.07673 -0.10333 -0.50843  11.00000 -1.20000 
AFIX 0
C18   1     0.25446  0.20961  0.55218  11.00000  0.07784  0.07458  0.06804 =
 0.03351  0.03055  0.02786 
AFIX 43
H18   2     0.21151  0.16306  0.59637  11.00000 -1.20000 
AFIX 0
C19   1     0.16493  0.45374  0.17431  11.00000  0.10245  0.05821  0.13304 =
 0.03674  0.07321  0.03697 
AFIX 43
H19   2     0.11701  0.43684  0.24020  11.00000 -1.20000 
AFIX 0
C20   1     0.39949 -0.05525 -0.33873  11.00000  0.06802  0.08978  0.10552 =
 -0.01495  0.04030  0.02850 
AFIX 43
H20   2     0.46982 -0.01726 -0.25083  11.00000 -1.20000 
AFIX 0
C21   1     0.37684  0.28381  0.63725  11.00000  0.07989  0.09087  0.05888 =
 0.02716  0.01808  0.03818 
AFIX 43
H21   2     0.41691  0.28659  0.73751  11.00000 -1.20000 
AFIX 0
C22   1     0.18477  0.54706  0.14572  11.00000  0.10413  0.05956  0.15675 =
 0.03639  0.05910  0.04204 
AFIX 43
H22   2     0.14719  0.59121  0.19107  11.00000 -1.20000 
AFIX 0
C23   1     0.25595  0.57659  0.05528  11.00000  0.09543  0.05604  0.08804 =
 0.03177  0.01564  0.01913 
AFIX 43
H23   2     0.26737  0.63969  0.03667  11.00000 -1.20000 
AFIX 0
C24   1     0.42790 -0.11875 -0.44622  11.00000  0.08494  0.11573  0.12134 =
 -0.01670  0.05223  0.04400 
AFIX 43
H24   2     0.51681 -0.12322 -0.42906  11.00000 -1.20000 
AFIX 0
C29   1     0.19425 -0.17051 -0.59777  11.00000  0.11474  0.08063  0.06372 =
 0.01375  0.03642  0.04769 
AFIX 43
H29   2     0.12360 -0.21087 -0.68395  11.00000 -1.20000 
AFIX 0
C30   1     0.31038  0.51188 -0.00775  11.00000  0.17323  0.07035  0.12127 =
 0.04626  0.08466  0.02533 
AFIX 43
H30   2     0.36338  0.53197 -0.06782  11.00000 -1.20000 
AFIX 0
N2    4     0.11056  0.01002 -0.25864  11.00000  0.05189  0.05227  0.05292 =
 0.00790  0.02549  0.02003 
C31   1     0.24082  0.01971 -0.24434  11.00000  0.05519  0.04774  0.06021 =
 0.01702  0.03135  0.02165 
C32   1    -0.02656  0.06832 -0.14455  11.00000  0.04096  0.05134  0.05247 =
 0.00951  0.01686  0.01608 
AFIX 43
H32   2    -0.09493  0.02000 -0.22517  11.00000 -1.20000 
AFIX 0
C33   1     0.26815 -0.04837 -0.36174  11.00000  0.06627  0.05030  0.06500 =
 0.01687  0.04008  0.02282 
C34   1     0.32724 -0.17376 -0.57497  11.00000  0.11434  0.07795  0.08438 =
 0.01178  0.05444  0.04747 
AFIX 43
H34   2     0.34767 -0.21375 -0.64807  11.00000 -1.20000 
AFIX 0

PART -1
AFIX 66
C10   1     9.94608  0.49846  0.47855  10.50000  0.16837  0.11865  0.12999 =
 0.03311  0.07388  0.08028 
C11   1    -0.01862  0.42083  0.53252  10.50000  0.15557  0.06906  0.09401 =
 0.01119  0.05742  0.04360 
AFIX 43
H11   2    -0.08754  0.36373  0.52835  10.50000 -1.20000 
AFIX 0
AFIX 65
C13   1     0.11970  0.42854  0.59271  10.50000  0.15163  0.10474  0.12484 =
 0.00399  0.05035  0.05274 
AFIX 43
H13   2     0.14332  0.37660  0.62882  10.50000 -1.20000 
AFIX 0
AFIX 65
C4    1     0.22272  0.51389  0.59893  10.50000  0.17444  0.13965  0.17471 =
 0.02719  0.04916  0.02174 
AFIX 43
H4    2     0.31527  0.51905  0.63920  10.50000 -1.20000 
AFIX 0
AFIX 65
C25   1     0.18742  0.59153  0.54496  10.50000  0.22075  0.13681  0.11661 =
 0.00731  0.07902  0.05104 
AFIX 43
H25   2     0.25635  0.64863  0.54912  10.50000 -1.20000 
AFIX 0
AFIX 65
C26   1     0.04910  0.58381  0.48477  10.50000  0.22765  0.10904  0.08297 =
 0.01517  0.08777  0.04486 
AFIX 43
H26   2     0.02548  0.63575  0.44866  10.50000 -1.20000 
AFIX 0
C27   1    -0.18807  0.48475  0.41914  10.50000  0.24558  0.23951  0.08451 =
 -0.00162  0.02089  0.15616 
AFIX 137
H27a  2    -0.22605  0.43034  0.33042  10.50000 -1.50000 
H27b  2    -0.23446  0.46917  0.49040  10.50000 -1.50000 
H27c  2    -0.20060  0.54485  0.39369  10.50000 -1.50000 
AFIX 0
HKLF 4

END
Q2 1 0.25 0.395833 -0.125 11 0.05 1.11
Q5 1 0.361111 0.083333 -0.125 11 0.05 0.65
Q1 1 0.166667 0.479167 0 11 0.05 1.65
Q3 1 0.472222 0.208333 0.15625 11 0.05 0.78
Q4 1 -0.083333 0.479167 0.46875 11 0.05 0.77

  REM The information below was added by Olex2.
  REM
  REM R1 = 0.0449 for 5024 Fo > 4sig(Fo) and 0.0648 for all 7595 data
  REM 339 parameters refined using 115 restraints
  REM Highest difference peak 1.6532, deepest hole -0.9823
  REM Mean Shift 0.0000, Max Shift 0.0007.

  REM +++ Tabular Listing of Refinement Information +++
  REM R1_all = 0.0648
  REM R1_gt = 0.0449
  REM wR_ref = 0.1263
  REM GOOF = 0.9071
  REM Shift_max = 0.0007
  REM Shift_mean = 0.0000
  REM Reflections_all = 7595
  REM Reflections_gt = 5024
  REM Parameters = 339
  REM Hole = -0.9823
  REM Peak = 1.6532
  REM Flack = n/a

  
;
_olex2_submission_special_instructions  'No special instructions were received'
loop_
  _restr_angle_atom_site_label_1
  _restr_angle_atom_site_label_2
  _restr_angle_atom_site_label_3
  _restr_angle_site_symmetry_1
  _restr_angle_site_symmetry_2
  _restr_angle_site_symmetry_3
  _restr_angle_target
  _restr_angle_target_weight_param
  _restr_angle_diff
 C5 C12 C6 1 1 1 120.0000 1.1459 -0.1358
 C31 C33 C20 1 1 1 120.0000 1.1459 0.7234

loop_
  _restr_chirality_atom_site_label_1
  _restr_chirality_atom_site_label_2
  _restr_chirality_atom_site_label_3
  _restr_chirality_atom_site_label_4
  _restr_chirality_site_symmetry_1
  _restr_chirality_site_symmetry_2
  _restr_chirality_site_symmetry_3
  _restr_chirality_site_symmetry_4
  _restr_chirality_volume_target
  _restr_chirality_weight_param
  _restr_chirality_diff
 C10 C26 C11 C27 1 1 1 1 0.0000 0.1000 -0.0578

loop_
  _restr_distance_atom_site_label_1
  _restr_distance_atom_site_label_2
  _restr_distance_site_symmetry_2
  _restr_distance_target
  _restr_distance_target_weight_param
  _restr_distance_diff
 C27 C10 1 1.3500 0.0100 0.0209

loop_
  _restr_RIGU_atom_site_label_1
  _restr_RIGU_atom_site_label_2
  _restr_RIGU_target_weight_param
  _restr_RIGU_U13_diff
  _restr_RIGU_U23_diff
  _restr_RIGU_U33_diff
 O C31 0.004000 -0.000861 -0.004302 -0.008398
 C2 C5 0.004000 -0.001907 0.000338 -0.001418
 C2 C7 0.004000 -0.005129 -0.001025 0.003270
 C2 C9 0.004000 -0.004637 -0.000876 -0.003259
 C2 C12 0.004000 -0.003806 0.001530 -0.002069
 C5 C6 0.004000 -0.010261 0.005743 -0.001659
 C5 C9 0.004000 -0.005386 -0.000459 -0.002531
 C5 C12 0.004000 -0.004633 0.004039 -0.003330
 C6 C7 0.004000 0.000071 0.008249 -0.000915
 C6 C9 0.004000 0.001056 0.004886 -0.000221
 C6 C12 0.004000 -0.010301 -0.004288 0.001203
 C7 C9 0.004000 0.001706 0.005103 -0.001282
 C7 C12 0.004000 -0.010850 -0.009013 0.000559
 C17 C20 0.004000 -0.011405 0.034658 -0.000927
 C17 C29 0.004000 -0.004380 0.009907 -0.002233
 C17 C33 0.004000 -0.007494 0.014509 0.001866
 C17 C34 0.004000 -0.000355 0.018181 -0.003295
 C20 C24 0.004000 0.002313 -0.007884 -0.000537
 C20 C33 0.004000 -0.006593 -0.009684 0.001069
 C20 C34 0.004000 -0.000026 -0.021454 -0.000666
 C24 C29 0.004000 -0.000391 -0.049546 -0.007249
 C24 C33 0.004000 -0.004036 -0.002135 -0.001279
 C24 C34 0.004000 0.001859 -0.028727 0.001260
 C29 C33 0.004000 -0.005309 0.010048 0.003117
 C29 C34 0.004000 -0.001066 0.019186 0.004729
 C10 C11 0.004000 -0.018624 -0.021214 0.014982
 C10 C13 0.004000 -0.013012 0.012673 -0.015153
 C10 C25 0.004000 -0.042121 -0.005567 -0.032602
 C10 C26 0.004000 -0.021688 0.011529 0.016146
 C11 C4 0.004000 -0.011071 -0.015502 -0.012296
 C11 C13 0.004000 -0.000784 0.002466 0.007169
 C11 C26 0.004000 0.024888 0.014667 -0.030897
 C4 C13 0.004000 0.006348 0.000383 -0.005547
 C4 C25 0.004000 -0.001520 -0.006246 0.001670
 C4 C26 0.004000 -0.024216 -0.041115 -0.008391
 C13 C25 0.004000 0.023618 0.011411 -0.023912
 C25 C26 0.004000 -0.001503 -0.002476 -0.009474

