data_OH
_space_group_crystal_system        'cubic'
_space_group_name_H-M_alt          'P 21 3'
loop_
  _space_group_symop_id
  _space_group_symop_operation_xyz
 1 +X,+Y,+Z
 2 1/2-X,-Y,1/2+Z
 3 1/2+X,1/2-Y,-Z
 4 -X,1/2+Y,1/2-Z

_cell_length_a                     5.1305(2)
_cell_length_b                     5.1305(2)
_cell_length_c                     5.1305(2)
_cell_angle_alpha                  90
_cell_angle_beta                   90
_cell_angle_gamma                  90
_cell_volume                       135.045176(3)
_cell_formula_units_Z              4
_diffrn_reflns_limit_h_max         3
_diffrn_reflns_limit_h_min         -6
_diffrn_reflns_limit_k_max         16
_diffrn_reflns_limit_k_min         -17
_diffrn_reflns_limit_l_max         18
_diffrn_reflns_limit_l_min         -17
loop_
  _atom_site_label
  _atom_site_type_symbol
  _atom_site_fract_x
  _atom_site_fract_y
  _atom_site_fract_z
  _atom_site_U_iso_or_equiv
  _atom_site_adp_type
  _atom_site_occupancy
  _atom_site_refinement_flags_posn
  _atom_site_site_symmetry_order
  _atom_site_disorder_group
 N1 N 0.2103   0.2103   0.2103 0.03996(19) Uani 1 . 1 .
 H1 H 0.3722   0.2627   0.1113 0.074(5) Uani 1 . 1 .
 H2 H 0.1113   0.3722   0.2627 0.074(5) Uani 1 . 1 .
 H3 H 0.2627   0.1113   0.3722 0.074(5) Uani 1 . 1 .

