data_epoxide
_chemical_formula_moiety           'F2'
_chemical_formula_weight           44.05
_chemical_melting_point            ?
_space_group_crystal_system        'monoclinic'
_space_group_IT_number             14
_space_group_name_H-M_alt          'P 1 21/n 1'
_space_group_name_Hall             '-P 2yn'
loop_
  _space_group_symop_id
  _space_group_symop_operation_xyz
 1 +X,+Y,+Z

_cell_length_a                     4.633(5)
_cell_length_b                     4.633(5)
_cell_length_c                     4.633(5)
_cell_angle_alpha                  90
_cell_angle_beta                   90
_cell_angle_gamma                  90
_cell_volume                       99.44590
_cell_formula_units_Z              1

loop_
  _atom_site_label
  _atom_site_type_symbol
  _atom_site_fract_x
  _atom_site_fract_y
  _atom_site_fract_z
  _atom_site_U_iso_or_equiv
  _atom_site_adp_type
  _atom_site_occupancy
  _atom_site_refinement_flags_posn
  _atom_site_site_symmetry_order
  _atom_site_disorder_group
 F1 F 0.0 0.0 0.0 0.029908 Uani 1 . 1 .
 F2 F 0.323764299(5) 0.0 0.0 0.028725 Uani 1 . 1 .



